0,   100.00,  32, 0, 1, 60.00     / PSS(R)E 32 RAW created by rawd32  MON, JUN 26 2017  13:31
                               100.0

     2,'CORONADO    ', 500.0000,1,  10,  10,   1,0.98294, -18.7879
     3,'CHOLLA      ', 345.0000,1,  10,  10,   1,1.02444, -10.3452
     4,'CORONADO    ',  20.0000,2,  10,  10,   1,1.01148, -12.1115
     5,'CRAIG       ', 345.0000,1,  60,  70,   1,1.01362,  13.4463
     6,'CRAIG       ',  20.0000,2,  60,  70,   1,1.01712,  19.9828
     7,'FOURCORN    ', 500.0000,1,  10,  10,   1,1.12384,  -8.0513
     8,'FOURCORN    ', 345.0000,1,  10,  10,   1,1.04710,  -5.0070
     9,'FCNGN4CC    ',  20.0000,2,  10,  10,   1,1.01935,   1.5315
    10,'FOURCORN    ', 230.0000,1,  10,  10,   1,1.04529,  -5.5116
    11,'HAYDEN      ',  20.0000,2,  10,  10,   1,1.00000,  30.2186
    12,'NAVAJO      ', 500.0000,1,  10,  10,   1,1.15105, -20.8558
    13,'NAVAJO 2    ',  20.0000,2,  10,  10,   1,1.08081, -15.5813
    14,'MOENKOPI    ', 500.0000,1,  10,  10,   1,1.15145, -21.6181
    15,'PALOVRD2    ',  20.0000,2,  10,  10,   1,1.03911, -19.4046
    16,'PALOVRDE    ', 500.0000,1,  10,  10,   1,1.12918, -26.1952
    17,'SAN JUAN    ', 345.0000,1,  10,  10,   1,1.06195,  -4.1620
    18,'SJUAN G4    ',  20.0000,2,  10,  10,   1,1.01000,  -1.2778
    19,'WESTWING    ', 500.0000,1,  10,  10,   1,1.13703, -26.0492
    20,'NAVAJO1     ', 500.0000,1,  10,  10,   1,1.14328, -19.9851
    21,'NAVAJO2     ', 500.0000,1,  10,  10,   1,1.14956, -22.4821
    22,'NAVAJO3     ', 500.0000,1,  10,  10,   1,1.12287, -19.1855
    23,'NAVAJO4     ', 500.0000,1,  10,  10,   1,1.10488, -27.7571
    24,'MOENKOPI    ', 500.0000,1,  10,  10,   1,1.13948, -20.2485
    25,'MOENKOP2    ', 500.0000,1,  10,  10,   1,1.12016, -27.4525
    26,'MOENKOP3    ', 500.0000,1,  10,  10,   1,1.14869, -13.9156
    27,'MOENKOP4    ', 500.0000,1,  10,  10,   1,1.02920, -37.9031
    28,'FOURCOR1    ', 500.0000,1,  10,  10,   1,1.11120,  -6.0450
    29,'FOURCOR2    ', 500.0000,1,  10,  10,   1,1.13420, -26.7595
    30,'CANAD G1    ',  20.0000,2,  50,  50,   1,1.05527,  18.0364
    31,'CANADA      ', 500.0000,1,  50,  50,   1,1.09434,  14.6352
    32,'CANALB      ', 500.0000,1,  50,  50,   1,1.03938,  42.6922
    33,'CA230TO     ', 230.0000,1,  50,  50,   1,0.99849,  47.3602
    34,'CA230       ', 230.0000,1,  50,  50,   1,1.00373,  56.3032
    35,'CMAIN GM    ',  20.0000,2,  50,  50,   1,1.02000,  61.2115
    36,'BRIDGER2    ',  22.0000,2,  60,  63,   1,1.06125,   0.4415
    37,'ADELANTO    ', 500.0000,1,  90,  90,   1,1.07247, -37.5629
    38,'ADELAN&1    ', 500.0000,1,  90,  90,   1,1.09293, -41.5578
    39,'CASTAIC     ', 230.0000,1,  26,  26,   1,1.04100, -42.5969
    40,'CASTAI4G    ',  20.0000,2,  26,  26,   1,1.02393, -41.2975
    41,'GLENDAL     ', 230.0000,1,  26,  26,   1,1.04235, -46.1700
    42,'HAYNES      ', 230.0000,1,  26,  26,   1,1.04443, -45.8815
    43,'HAYNES3G    ',  20.0000,2,  26,  26,   1,1.00496, -42.6261
    44,'INTERMT     ', 345.0000,1,  90,  90,   1,1.06437,  -5.5151
    45,'INTERM1G    ',  20.0000,2,  90,  90,   1,1.06068,  -0.9659
    46,'OLIVE       ', 230.0000,1,  26,  26,   1,1.04579, -42.9358
    47,'OWENS G     ',  20.0000,2,  26,  26,   1,1.01546, -42.5364
    48,'RINALDI     ', 230.0000,1,  26,  26,   1,1.04533, -43.1419
    49,'RINALDI     ', 500.0000,1,  26,  26,   1,1.08403, -40.8257
    50,'RIVER       ', 230.0000,1,  26,  26,   1,1.03912, -47.0483
    51,'STA B       ', 138.0000,1,  26,  26,   1,1.04758, -47.0958
    52,'STA B1      ', 287.0000,1,  26,  26,   1,1.05146, -45.9418
    53,'STA B2      ', 287.0000,1,  26,  26,   1,1.05146, -45.9418
    54,'STA BLD     ', 230.0000,1,  26,  26,   1,1.04254, -47.3013
    55,'STA E       ', 230.0000,1,  26,  26,   1,1.04014, -45.3173
    56,'STA E       ', 500.0000,1,  26,  26,   1,1.05739, -42.9747
    57,'STA F       ', 230.0000,1,  26,  26,   1,1.04026, -47.0812
    58,'STA G       ', 230.0000,1,  26,  26,   1,1.04026, -46.4044
    59,'STA J       ', 230.0000,1,  26,  26,   1,1.04235, -44.1928
    60,'SYLMARLA    ', 230.0000,1,  90,  90,   1,1.04903, -42.4700
    61,'SYLMAR S    ', 230.0000,1,  24,  24,   1,1.03039, -43.5601
    62,'VALLEY      ', 230.0000,1,  26,  26,   1,1.04196, -44.3103
    63,'VICTORVL    ', 287.0000,1,  26,  26,   1,1.06515, -39.8529
    64,'VICTORVL    ', 500.0000,1,  26,  26,   1,1.07052, -37.8732
    65,'MONTA G1    ',  20.0000,2,  60,  62,   1,1.08000,  43.1043
    66,'MONTANA     ', 500.0000,1,  60,  62,   1,1.13558,  35.9310
    67,'BIG EDDY    ', 115.0000,1,  40,  40,   1,1.04204, -17.4686
    68,'BIG EDDY    ', 230.0000,1,  40,  40,   1,1.03998, -14.9852
    69,'BIG EDDY    ', 500.0000,1,  40,  40,   1,1.08393, -13.7023
    70,'DALLES21    ',  20.0000,2,  40,  40,   1,1.03000,  -8.0235
    71,'CELILO      ', 230.0000,1,  90,  90,   1,1.03604, -15.5182
    72,'CELILOCA    ', 500.0000,1,  40,  40,   1,1.08255, -13.8084
    73,'COLSTRP     ', 500.0000,1,  60,  62,   1,1.10766,   4.1493
    74,'COULEE      ', 500.0000,1,  40,  41,   1,1.11568,  -3.2158
    75,'GARRISON    ', 500.0000,1,  60,  62,   1,1.09515, -17.0889
    76,'JOHN DAY    ', 500.0000,1,  40,  40,   1,1.11490, -11.6603
    77,'JOHN DAY    ',  20.0000,3,  40,  40,   1,1.04512,   0.0000
    78,'HANFORD     ', 500.0000,1,  40,  41,   1,1.14043,  -3.2837
    79,'NORTH G3    ',  20.0000,2,  40,  42,   1,1.06470,  19.4013
    80,'NORTH       ', 500.0000,1,  40,  42,   1,1.11470,   6.7415
    81,'BURNS       ', 500.0000,1,  40,  40,   1,1.11207, -19.6026
    82,'GRIZZLY     ', 500.0000,1,  40,  40,   1,1.12152, -17.3557
    83,'MALIN       ', 500.0000,1,  40,  40,   1,1.12456, -23.0716
    84,'MIDPOINT    ', 500.0000,1,  61,  61,   1,1.12128,  -6.5035
    85,'MIDPOINT    ', 345.0000,1,  61,  61,   1,1.05294,  -3.1932
    86,'SUMMER L    ', 500.0000,1,  40,  40,   1,1.11934, -18.4137
    87,'GRIZZLY1    ', 500.0000,1,  40,  40,   1,1.12971, -18.8364
    88,'GRIZZLY2    ', 500.0000,1,  40,  40,   1,1.11858, -16.3412
    89,'MALIN1      ', 500.0000,1,  40,  40,   1,1.10371, -14.6749
    90,'MALIN2      ', 500.0000,1,  40,  40,   1,1.12507, -19.8454
    91,'GRIZZLY3    ', 500.0000,1,  40,  40,   1,1.14703, -21.6162
    92,'GRIZZLY4    ', 500.0000,1,  40,  40,   1,1.12415, -17.4631
    93,'GRIZZLY5    ', 500.0000,1,  40,  40,   1,1.13701, -22.2376
    94,'GRIZZLY6    ', 500.0000,1,  40,  40,   1,1.12868, -18.0831
    95,'GRIZZLY7    ', 500.0000,1,  40,  40,   1,1.14688, -21.8493
    96,'GRIZZLY8    ', 500.0000,1,  40,  40,   1,1.12390, -17.4644
    97,'GRIZZLY9    ', 500.0000,1,  40,  40,   1,1.13666, -22.5036
    98,'GRIZZLYA    ', 500.0000,1,  40,  40,   1,1.12814, -18.1164
    99,'BURNS1      ', 500.0000,1,  40,  40,   1,1.01936,   5.6431
   100,'CORTINA     ', 230.0000,1,  39,  39,   1,1.03189, -31.8996
   101,'COTWDPGE    ', 230.0000,1,  39,  39,   1,1.12759, -28.7625
   102,'DIABLO      ', 500.0000,1,  38,  38,   1,1.09278, -41.7877
   103,'DIABLO1     ',  20.0000,2,  38,  38,   1,1.05077, -38.3712
   104,'GATES       ', 500.0000,1,  38,  38,   1,1.07603, -43.2575
   105,'GLENN       ', 230.0000,1,  39,  39,   1,1.02191, -31.4568
   106,'LOGAN CR    ', 230.0000,1,  39,  39,   1,1.11638, -32.3951
   107,'LOSBANOS    ', 500.0000,1,  39,  39,   1,1.06800, -45.0042
   108,'MIDWAY      ', 500.0000,1,  38,  38,   1,1.07033, -44.0693
   109,'MIDWAY      ', 230.0000,1,  38,  38,   1,1.13250, -46.9261
   110,'MOSSLAND    ', 500.0000,1,  39,  39,   1,1.06517, -45.2598
   111,'OLINDA      ', 500.0000,1,  80,  80,   1,1.10977, -29.9828
   112,'ROUND MT    ',  20.0000,2,  39,  39,   1,1.07075, -15.0038
   113,'ROUND MT    ', 230.0000,1,  39,  39,   1,1.15697, -24.3067
   114,'ROUND MT    ', 500.0000,1,  39,  39,   1,1.08104, -27.3032
   115,'TABLE MT    ', 500.0000,1,  39,  39,   1,1.06200, -29.2474
   116,'TEVATR      ',  20.0000,2,  39,  39,   1,1.01200, -32.6610
   117,'TEVATR      ', 200.0000,1,  39,  39,   1,1.08077, -36.9349
   118,'TEVATR2     ',  20.0000,2,  39,  39,   1,1.01200, -27.7935
   119,'TEVATR      ', 500.0000,1,  39,  39,   1,0.99119, -35.9650
   120,'OLINDA1     ', 500.0000,1,  80,  80,   1,1.12478, -24.2544
   121,'OLINDA2     ', 500.0000,1,  80,  80,   1,1.07765, -35.7018
   122,'OLINDA3     ', 500.0000,1,  80,  80,   1,1.10168, -29.7267
   123,'OLINDA4     ', 500.0000,1,  80,  80,   1,1.03192, -42.8309
   124,'ROUND1      ', 500.0000,1,  39,  39,   1,1.08753, -24.4239
   125,'ROUND2      ', 500.0000,1,  39,  39,   1,1.04998, -31.2577
   126,'ROUND3      ', 500.0000,1,  39,  39,   1,1.08753, -24.4239
   127,'ROUND4      ', 500.0000,1,  39,  39,   1,1.04998, -31.2577
   128,'TABLE1      ', 500.0000,1,  39,  39,   1,1.08022, -23.0665
   129,'TABLE2      ', 500.0000,1,  39,  39,   1,1.00745, -42.9521
   130,'TABLE3      ', 500.0000,1,  39,  39,   1,1.09154, -24.7434
   131,'TABLE4      ', 500.0000,1,  39,  39,   1,0.99693, -38.5703
   132,'TEVATR1     ', 500.0000,1,  39,  39,   1,1.01438, -34.1848
   133,'TEVATR2     ', 500.0000,1,  39,  39,   1,1.07212, -46.7979
   134,'TEVATR3     ', 500.0000,1,  39,  39,   1,1.10163, -32.4131
   135,'GATES1      ', 500.0000,1,  38,  38,   1,1.04962, -45.5347
   136,'DEVERS      ', 500.0000,1,  24,  24,   1,1.08494, -38.6855
   137,'EAGLROCK    ', 230.0000,1,  24,  24,   1,1.01342, -48.0121
   138,'ELDORADO    ',  20.0000,2,  24,  29,   1,1.02000, -21.9568
   139,'ELDORADO    ', 500.0000,1,  24,  29,   1,1.07931, -28.8921
   140,'LITEHIPE    ',  20.0000,2,  24,  24,   1,1.00900, -44.7293
   141,'LITEHIPE    ', 230.0000,1,  24,  24,   1,1.00191, -51.0081
   142,'LUGO        ', 500.0000,1,  24,  24,   1,1.05946, -41.4007
   143,'MESA CAL    ', 230.0000,1,  24,  24,   1,1.00303, -50.3129
   144,'MIRALOMA    ',  20.0000,2,  24,  24,   1,1.00900, -40.4538
   145,'MIRALOMA    ', 500.0000,1,  24,  24,   1,1.03157, -44.9036
   146,'MIRALOMA    ', 230.0000,1,  24,  24,   1,1.02936, -45.3533
   147,'MOHAVE      ', 500.0000,1,  24,  29,   1,1.08136, -25.1635
   148,'MOHAV1CC    ',  22.0000,2,  24,  24,   1,1.05000, -16.9310
   149,'PARDEE      ',  20.0000,2,  24,  24,   1,1.01000, -34.9380
   150,'PARDEE      ', 230.0000,1,  24,  24,   1,1.01225, -46.9448
   151,'SERRANO     ', 500.0000,1,  25,  25,   1,1.04424, -45.2500
   152,'VALLEY      ', 500.0000,1,  24,  24,   1,1.06362, -42.8060
   153,'VINCENT     ', 500.0000,1,  24,  24,   1,1.06969, -44.3273
   154,'VINCENT     ', 230.0000,1,  24,  24,   1,1.00170, -46.9601
   155,'CAMP WIL    ', 345.0000,1,  60,  65,   1,1.06602,  -3.2746
   156,'BENLOMND    ', 345.0000,1,  60,  65,   1,1.08182,  -3.8157
   157,'BENLOMND    ', 230.0000,1,  60,  65,   1,1.09097,  -4.3449
   158,'EMERY       ', 345.0000,1,  60,  65,   1,1.03362,   2.2059
   159,'EMERY       ',  20.0000,2,  60,  65,   1,1.02000,   7.1262
   160,'MONA        ', 345.0000,1,  60,  65,   1,1.06750,  -3.2069
   161,'NAUGHTON    ', 230.0000,1,  60,  63,   1,1.11054,  -0.3827
   162,'NAUGHT      ',  20.0000,2,  60,  63,   1,1.06159,   2.0978
   163,'PINTO PS    ', 345.0000,1,  60,  65,   1,1.13092,  -3.8669
   164,'PINTO       ', 345.0000,1,  60,  65,   1,1.15931,  -3.2098
   165,'SPAN FRK    ', 345.0000,1,  60,  65,   1,1.05131,  -2.5114
   166,'SIGURD      ', 345.0000,1,  60,  65,   1,1.05693,  -2.4513
   167,'TERMINAL    ', 345.0000,1,  60,  65,   1,1.06542,  -3.3431
   168,'MALIN3      ', 500.0000,1,  40,  40,   1,1.14909, -19.7808
   169,'MALIN4      ', 500.0000,1,  40,  40,   1,1.05306, -31.0013
   170,'MALIN5      ', 500.0000,1,  40,  40,   1,1.15352, -19.0928
   171,'MALIN6      ', 500.0000,1,  40,  40,   1,1.05438, -31.0366
   172,'MALIN7      ', 500.0000,1,  40,  40,   1,1.08244, -18.0428
   173,'MALIN8      ', 500.0000,1,  40,  40,   1,1.08791, -35.0050
   174,'MIDWAY1     ', 500.0000,1,  38,  38,   1,1.06039, -43.7738
   175,'MIDWAY2     ', 500.0000,1,  38,  38,   1,1.05998, -44.6228
   176,'MIDWAY3     ', 500.0000,1,  38,  38,   1,1.06018, -43.7697
   177,'MIDWAY4     ', 500.0000,1,  38,  38,   1,1.06009, -44.6240
   178,'MIDWAY5     ', 500.0000,1,  38,  38,   1,1.06005, -43.7621
   179,'MIDWAY6     ', 500.0000,1,  38,  38,   1,1.06260, -44.6025
   180,'BURNS2      ', 500.0000,1,  40,  40,   1,1.04187,  -7.9009
   181,'ADDBUS1     ',  20.0000,2,  40,  40,   1,1.00000, -17.0889
   182,'ADDBUS2     ',  20.0000,2,  39,  39,   1,1.10850, -35.9599
 0 /End of Bus data, Begin Load data
     2,'BL',1,  10,  10,     0.000,     0.000,     0.000,     0.000,  1772.581,   -56.723,   1,1
     4,'BL',1,  10,  10,     0.000,     0.000,     0.000,     0.000,    97.743,     0.000,   1,1
     5,'BL',1,  60,  70,     0.000,    -0.000,     0.000,     0.000,  2287.269,   123.610,   1,1
     6,'BL',1,  60,  70,     0.000,     0.000,     0.000,     0.000,    96.662,     0.000,   1,1
     8,'BL',1,  10,  10,     0.000,    -0.000,     0.000,     0.000,   217.983,    51.076,   1,1
     9,'BL',1,  10,  10,     0.000,     0.000,     0.000,     0.000,    96.239,     0.000,   1,1
    10,'BL',1,  10,  10,     0.000,     0.000,     0.000,     0.000,   127.856,   -21.782,   1,1
    11,'BL',1,  10,  10,     0.000,     0.000,     0.000,     0.000,   100.000,     0.000,   1,1
    12,'BL',1,  10,  10,     0.000,     0.000,     0.000,     0.000,    67.929,   -52.834,   1,1
    13,'BL',1,  10,  10,     0.000,     0.000,     0.000,     0.000,    85.605,     0.000,   1,1
    15,'BL',1,  10,  10,     0.000,     0.000,     0.000,     0.000,    92.614,     0.000,   1,1
    16,'BL',1,  10,  10,     0.000,     0.000,     0.000,     0.000,   622.255,  -162.348,   1,1
    17,'BL',1,  10,  10,     0.000,     0.000,     0.000,     0.000,   744.854,    -4.434,   1,1
    18,'BL',1,  10,  10,     0.000,     0.000,     0.000,     0.000,    98.030,     0.000,   1,1
    19,'BL',1,  10,  10,     0.000,    -0.000,     0.000,     0.000,   477.243,    53.371,   1,1
    30,'BL',1,  50,  50,     0.000,     0.000,     0.000,     0.000,    89.799,     0.000,   1,1
    31,'BL',1,  50,  50,     0.000,     0.000,     0.000,     0.000,  3674.084,  -835.019,   1,1
    34,'BL',1,  50,  50,     0.000,     0.000,     0.000,     0.000,  3573.270,  -694.802,   1,1
    35,'BL',1,  50,  50,     0.000,     0.000,     0.000,     0.000,    96.117,     0.000,   1,1
    36,'BL',1,  60,  63,     0.000,     0.000,     0.000,     0.000,    88.790,     0.000,   1,1
    37,'BL',1,  90,  90,    -0.000,     0.000,     0.000,     0.000, -1618.862,  -844.208,   1,1
    40,'BL',1,  26,  26,     0.000,     0.000,     0.000,     0.000,    95.380,     0.000,   1,1
    41,'BL',1,  26,  26,     0.000,     0.000,     0.000,     0.000,   124.252,   -24.850,   1,1
    43,'BL',1,  26,  26,     0.000,     0.000,     0.000,     0.000,    99.015,     0.000,   1,1
    44,'BL',1,  90,  90,     0.000,     0.000,     0.000,     0.000,  1812.187,  -800.699,   1,1
    45,'BL',1,  90,  90,     0.000,     0.000,     0.000,     0.000,    88.886,     0.000,   1,1
    46,'BL',1,  26,  26,    -0.000,    -0.000,     0.000,     0.000,   -66.564,    15.544,   1,1
    47,'BL',1,  26,  26,     0.000,     0.000,     0.000,     0.000,    96.978,     0.000,   1,1
    48,'BL',1,  26,  26,     0.000,     0.000,     0.000,     0.000,   110.734,   -22.879,   1,1
    50,'BL',1,  26,  26,     0.000,     0.000,     0.000,     0.000,   296.360,   -60.198,   1,1
    51,'BL',1,  26,  26,     0.000,    -0.000,     0.000,     0.000,   216.142,    57.589,   1,1
    54,'BL',1,  26,  26,     0.000,     0.000,     0.000,     0.000,   126.968,   -25.762,   1,1
    55,'BL',1,  26,  26,     0.000,     0.000,     0.000,     0.000,   746.661,  -122.102,   1,1
    57,'BL',1,  26,  26,     0.000,     0.000,     0.000,     0.000,   108.118,   -22.178,   1,1
    58,'BL',1,  26,  26,     0.000,     0.000,     0.000,     0.000,   111.815,   -23.102,   1,1
    59,'BL',1,  26,  26,     0.000,    -0.000,     0.000,     0.000,   817.031,     5.706,   1,1
    60,'BL',1,  90,  90,    -0.000,     0.000,     0.000,     0.000, -2518.027, -1503.001,   1,1
    61,'BL',1,  24,  24,     0.000,     0.000,     0.000,     0.000,   377.696,   -75.916,   1,1
    62,'BL',1,  26,  26,     0.000,     0.000,     0.000,     0.000,   189.007,   -16.211,   1,1
    63,'BL',1,  26,  26,    -0.000,     0.000,     0.000,     0.000,  -113.701,   -28.381,   1,1
    65,'BL',1,  60,  62,     0.000,     0.000,     0.000,     0.000,    85.734,     0.000,   1,1
    66,'BL',1,  60,  62,     0.000,     0.000,     0.000,     0.000,  1318.296,  -232.641,   1,1
    67,'BL',1,  40,  40,     0.000,     0.000,     0.000,     0.000,   147.351,   -28.779,   1,1
    68,'BL',1,  40,  40,    -0.000,     0.000,     0.000,     0.000,   -62.409,  -147.934,   1,1
    69,'BL',1,  40,  40,    -0.000,     0.000,     0.000,     0.000,   -37.620,   -18.725,   1,1
    70,'BL',1,  40,  40,     0.000,     0.000,     0.000,     0.000,    94.260,     0.000,   1,1
    71,'BL',1,  90,  90,     0.000,     0.000,     0.000,     0.000,  2922.540, -1566.079,   1,1
    73,'BL',1,  60,  62,    -0.000,    -0.000,     0.000,     0.000, -1242.958,    40.753,   1,1
    75,'BL',1,  60,  62,     0.000,     0.000,     0.000,     0.000,  2154.482,  -328.508,   1,1
    76,'BL',1,  40,  40,     0.000,     0.000,     0.000,     0.000,  2574.407,  -884.952,   1,1
    77,'BL',1,  40,  40,     0.000,     0.000,     0.000,     0.000,    91.552,     0.000,   1,1
    78,'BL',1,  40,  41,     0.000,     0.000,     0.000,     0.000,  2691.104,  -384.443,   1,1
    79,'BL',1,  40,  42,     0.000,     0.000,     0.000,     0.000,    88.216,     0.000,   1,1
    80,'BL',1,  40,  42,     0.000,     0.000,     0.000,     0.000,  4023.999,  -321.920,   1,1
    82,'BL',1,  40,  40,    -0.000,    -0.000,     0.000,     0.000,   -52.949,    77.118,   1,1
    83,'BL',1,  40,  40,    -0.000,    -0.000,     0.000,     0.000,  -268.062,    94.099,   1,1
    85,'BL',1,  61,  61,     0.000,    -0.000,     0.000,     0.000,   550.208,   373.420,   1,1
   100,'BL',1,  39,  39,    -0.000,     0.000,     0.000,     0.000,   -40.665,   -18.783,   1,1
   101,'BL',1,  39,  39,     0.000,    -0.000,     0.000,     0.000,   165.479,    60.560,   1,1
   102,'BL',1,  38,  38,     0.000,     0.000,     0.000,     0.000,    41.870,   -20.935,   1,1
   103,'BL',1,  38,  38,     0.000,     0.000,     0.000,     0.000,    90.570,     0.000,   1,1
   104,'BL',1,  38,  38,     0.000,    -0.000,     0.000,     0.000,   263.421,     6.564,   1,1
   105,'BL',1,  39,  39,     0.000,    -0.000,     0.000,     0.000,    26.333,     0.096,   1,1
   106,'BL',1,  39,  39,     0.000,     0.000,     0.000,     0.000,     6.427,     0.000,   1,1
   107,'BL',1,  39,  39,     0.000,     0.000,     0.000,     0.000,   232.330,   -12.274,   1,1
   108,'BL',1,  38,  38,     0.000,    -0.000,     0.000,     0.000,    48.534,   287.186,   1,1
   109,'BL',1,  38,  38,     0.000,     0.000,     0.000,     0.000,   606.289,   -25.418,   1,1
   110,'BL',1,  39,  39,     0.000,     0.000,     0.000,     0.000,    35.255,   -18.950,   1,1
   111,'BL',1,  80,  80,    -0.000,     0.000,     0.000,     0.000,  -153.461,   -49.936,   1,1
   112,'BL',1,  39,  39,     0.000,     0.000,     0.000,     0.000,    87.222,     0.000,   1,1
   113,'BL',1,  39,  39,     0.000,     0.000,     0.000,     0.000,   110.565,     0.000,   1,1
   115,'BL',1,  39,  39,    -0.000,     0.000,     0.000,     0.000,    -0.621,  -105.068,   1,1
   116,'BL',1,  39,  39,     0.000,     0.000,     0.000,     0.000,    97.643,     0.000,   1,1
   117,'BL',1,  39,  39,     0.000,     0.000,     0.000,     0.000,   756.809,   -46.915,   1,1
   118,'BL',1,  39,  39,     0.000,     0.000,     0.000,     0.000,    97.643,     0.000,   1,1
   119,'BL',1,  39,  39,     0.000,     0.000,     0.000,     0.000,  5863.856, -3553.328,   1,1
   136,'BL',1,  24,  24,     0.000,     0.000,     0.000,     0.000,   727.212,   -16.651,   1,1
   137,'BL',1,  24,  24,     0.000,     0.000,     0.000,     0.000,   170.397,   -17.527,   1,1
   138,'BL',1,  24,  29,     0.000,     0.000,     0.000,     0.000,    96.117,     0.000,   1,1
   139,'BL',1,  24,  29,     0.000,    -0.000,     0.000,     0.000,   774.571,     9.786,   1,1
   140,'BL',1,  24,  24,     0.000,     0.000,     0.000,     0.000,    98.224,     0.000,   1,1
   141,'BL',1,  24,  24,     0.000,     0.000,     0.000,     0.000,  3178.854,  -627.602,   1,1
   142,'BL',1,  24,  24,     0.000,    -0.000,     0.000,     0.000,   181.921,    25.123,   1,1
   143,'BL',1,  24,  24,     0.000,     0.000,     0.000,     0.000,   375.127,   -64.111,   1,1
   144,'BL',1,  24,  24,     0.000,     0.000,     0.000,     0.000,    98.224,     0.000,   1,1
   145,'BL',1,  24,  24,     0.000,     0.000,     0.000,     0.000,  2911.256, -1117.328,   1,1
   148,'BL',1,  24,  24,     0.000,     0.000,     0.000,     0.000,    90.703,     0.000,   1,1
   149,'BL',1,  24,  24,     0.000,     0.000,     0.000,     0.000,    98.030,     0.000,   1,1
   150,'BL',1,  24,  24,     0.000,     0.000,     0.000,     0.000,  3043.015,   -76.124,   1,1
   151,'BL',1,  25,  25,     0.000,     0.000,     0.000,     0.000,  1127.997,   -66.763,   1,1
   152,'BL',1,  24,  24,     0.000,     0.000,     0.000,     0.000,   358.882,   -36.242,   1,1
   154,'BL',1,  24,  24,     0.000,    -0.000,     0.000,     0.000,  1062.387,    10.763,   1,1
   155,'BL',1,  60,  65,     0.000,     0.000,     0.000,     0.000,   402.764,   -71.894,   1,1
   156,'BL',1,  60,  65,     0.000,     0.000,     0.000,     0.000,    28.966,   -10.168,   1,1
   157,'BL',1,  60,  65,     0.000,    -0.000,     0.000,     0.000,   124.348,     6.637,   1,1
   158,'BL',1,  60,  65,     0.000,     0.000,     0.000,     0.000,   108.670,   -35.943,   1,1
   159,'BL',1,  60,  65,     0.000,     0.000,     0.000,     0.000,    96.117,     0.000,   1,1
   160,'BL',1,  60,  65,    -0.000,     0.000,     0.000,     0.000,   -54.407,   -11.233,   1,1
   161,'BL',1,  60,  63,     0.000,     0.000,     0.000,     0.000,   206.762,   -81.083,   1,1
   162,'BL',1,  60,  63,     0.000,     0.000,     0.000,     0.000,    88.733,     0.000,   1,1
   164,'BL',1,  60,  65,     0.000,     0.000,     0.000,     0.000,    23.512,    -8.557,   1,1
   165,'BL',1,  60,  65,     0.000,     0.000,     0.000,     0.000,   127.752,   -64.600,   1,1
   166,'BL',1,  60,  65,     0.000,    -0.000,     0.000,     0.000,   339.273,    38.493,   1,1
   167,'BL',1,  60,  65,     0.000,     0.000,     0.000,     0.000,   162.980,   -69.156,   1,1
 0 /End of Load data, Begin Fixed shunt data
     7,'1 ',1,     0.000,  -113.000
     8,'1 ',1,     0.000,  -155.000
    12,'1 ',1,     0.000,  -190.000
    14,'1 ',1,     0.000,  -391.000
    16,'1 ',1,     0.000,  -146.000
    17,'1 ',1,     0.000,   390.000
    19,'1 ',1,     0.000,  -427.000
    26,'1 ',1,     0.000,   100.000
    32,'1 ',1,     0.000,  -600.000
    33,'1 ',1,     0.000,   600.000
    37,'1 ',1,     0.000,   912.000
    41,'1 ',1,     0.000,   100.000
    44,'1 ',1,     0.000,   430.000
    49,'1 ',1,     0.000,   -80.000
    60,'1 ',1,     0.000,  2146.000
    63,'1 ',1,     0.000,  -108.000
    65,'1 ',1,     0.000,  1000.000
    66,'1 ',1,     0.000,  -200.000
    68,'1 ',1,     0.000,   100.000
    70,'1 ',1,     0.000,   500.000
    71,'1 ',1,     0.000,   100.000
    72,'1 ',1,     0.000,   100.000
    73,'1 ',1,     0.000, -1250.000
    74,'1 ',1,     0.000,  -200.000
    75,'1 ',1,     0.000,   850.000
    76,'1 ',1,     0.000,  1200.000
    78,'1 ',1,     0.000,  1500.000
    80,'1 ',1,     0.000,   100.000
    81,'1 ',1,     0.000,  -220.000
    82,'1 ',1,     0.000,  -674.000
    83,'1 ',1,     0.000,   200.000
    84,'1 ',1,     0.000,  -220.000
    85,'1 ',1,     0.000,  -870.000
   100,'1 ',1,     0.000,  -100.000
   104,'1 ',1,     0.000,   -91.000
   105,'1 ',1,     0.000,  -150.000
   108,'1 ',1,     0.000,  -327.000
   109,'1 ',1,     0.000,  -600.000
   111,'1 ',1,     0.000,  -100.000
   112,'1 ',1,     0.000,  -625.000
   113,'1 ',1,     0.000,  -125.000
   114,'1 ',1,     0.000,   -91.000
   115,'1 ',1,     0.000,   -91.000
   116,'1 ',1,     0.000,   200.000
   117,'1 ',1,     0.000,  -232.000
   118,'1 ',1,     0.000,   500.000
   119,'1 ',1,     0.000,  4500.000
   123,'1 ',1,     0.000,  -700.000
   129,'1 ',1,     0.000,  -300.000
   131,'1 ',1,     0.000,  -500.000
   132,'1 ',1,     0.000,  -500.000
   134,'1 ',1,     0.000,  -900.000
   138,'1 ',1,     0.000,   -50.000
   139,'1 ',1,     0.000,  -319.000
   145,'1 ',1,     0.000,   400.000
   147,'1 ',1,     0.000,  -196.000
   154,'1 ',1,     0.000,  -190.000
   155,'1 ',1,     0.000,   -60.000
   158,'1 ',1,     0.000,  -220.000
   164,'1 ',1,     0.000,   200.000
   166,'1 ',1,     0.000,   -50.000
   172,'1 ',1,     0.000,   300.000
   173,'1 ',1,     0.000,   200.000
   180,'1 ',1,     0.000,  -220.000
 0 /End of Fixed shunt data, Begin Generator data
     4,'1 ',   800.000,   -66.244,   300.000,  -300.000,1.01148,     0,  1462.000, 0.00000E+0, 1.95000E-1, 0.00000E+0, 0.00000E+0,1.00000,1,  100.0,  9999.000,     0.000,   1,1.0000
     6,'1 ',   349.000,    27.603,   400.000,  -400.000,1.01712,     0,  1488.000, 0.00000E+0, 1.90000E-1, 0.00000E+0, 0.00000E+0,1.00000,1,  100.0,  9999.000,     0.000,   1,1.0000
     6,'2 ',   699.000,    55.284,   400.000,  -400.000,1.01712,     0,  1488.000, 0.00000E+0, 1.90000E-1, 0.00000E+0, 0.00000E+0,1.00000,1,  100.0,  9999.000,     0.000,   1,1.0000
     9,'1 ',  2160.000,  -361.742,   700.000,  -500.000,1.01935,     0,  2458.000, 0.00000E+0, 2.05000E-1, 0.00000E+0, 0.00000E+0,1.00000,1,  100.0,  9999.000,     0.000,   1,1.0000
    11,'1 ',  2050.000,   196.668,   900.000,  -900.000,1.00000,     0,  3000.000, 0.00000E+0, 1.90000E-1, 0.00000E+0, 0.00000E+0,1.00000,1,  100.0,  9999.000,     0.000,   1,1.0000
    13,'1 ',  1690.000,   317.051,   700.000,  -280.000,1.08081,     0,  3540.000, 0.00000E+0, 1.75000E-1, 0.00000E+0, 0.00000E+0,1.00000,1,  100.0,  9999.000,     0.000,   1,1.0000
    15,'1 ',  2640.000,   502.576,  1300.000,  -900.000,1.03911,     0,  3117.000, 0.00000E+0, 2.85000E-1, 0.00000E+0, 0.00000E+0,1.00000,1,  100.0,  9999.000,     0.000,   1,1.0000
    18,'1 ',   962.000,  -107.590,  1300.000, -1300.000,1.01000,     0,  2054.000, 0.00000E+0, 2.05000E-1, 0.00000E+0, 0.00000E+0,1.00000,1,  100.0,  9999.000,     0.000,   1,1.0000
    30,'1 ',  1483.300,   348.896,  4000.000, -4000.000,1.05527,     0, 10578.000, 0.00000E+0, 1.50000E-1, 0.00000E+0, 0.00000E+0,1.00000,1,  100.0,  9999.000,     0.000,   1,1.0000
    30,'2 ',  2966.700,   697.816,  4000.000, -4000.000,1.05527,     0, 10578.000, 0.00000E+0, 1.50000E-1, 0.00000E+0, 0.00000E+0,1.00000,1,  100.0,  9999.000,     0.000,   1,1.0000
    35,'1 ',  1493.300,   339.105,  5320.000, -3500.000,1.02000,     0,  6698.039, 0.00000E+0, 2.50000E-1, 0.00000E+0, 0.00000E+0,1.00000,1,  100.0,  9999.000,     0.000,   1,1.0000
    35,'2 ',  2986.600,   678.211,  5320.000, -3500.000,1.02000,     0,  6698.039, 0.00000E+0, 2.50000E-1, 0.00000E+0, 0.00000E+0,1.00000,1,  100.0,  9999.000,     0.000,   1,1.0000
    36,'1 ',  1640.000,   240.691,   600.000,  -525.000,1.06125,     0,  2166.000, 0.00000E+0, 2.15000E-1, 0.00000E+0, 0.00000E+0,1.00000,1,  100.0,  9999.000,     0.000,   1,1.0000
    40,'1 ',   200.000,   -74.398,   268.000,  -134.000,1.02393,     0,   770.000, 0.00000E+0, 1.00000E-1, 0.00000E+0, 0.00000E+0,1.00000,1,  100.0,  9999.000,     0.000,   1,1.0000
    43,'1 ',   325.000,    38.528,   300.000,  -220.000,1.00496,     0,   500.000, 0.00000E+0, 1.00000E-1, 0.00000E+0, 0.00000E+0,1.00000,1,  100.0,  9999.000,     0.000,   1,1.0000
    45,'1 ',   593.000,   173.561,   850.000,  -440.000,1.06068,     0,  1982.000, 0.00000E+0, 1.00000E-1, 0.00000E+0, 0.00000E+0,1.00000,1,  100.0,  9999.000,     0.000,   1,1.0000
    45,'2 ',  1187.000,   347.414,   850.000,  -440.000,1.06068,     0,  1982.000, 0.00000E+0, 1.00000E-1, 0.00000E+0, 0.00000E+0,1.00000,1,  100.0,  9999.000,     0.000,   1,1.0000
    47,'1 ',   110.000,    15.386,   100.000,  -100.000,1.01546,     0,   130.000, 0.00000E+0, 1.00000E-1, 0.00000E+0, 0.00000E+0,1.00000,1,  100.0,  9999.000,     0.000,   1,1.0000
    65,'1 ',   970.000,   -55.171,  1500.340, -1000.000,1.08000,     0,  4830.000, 0.00000E+0, 2.30790E-1, 0.00000E+0, 0.00000E+0,1.00000,1,  100.0,  9999.000,     0.000,   1,1.0000
    65,'2 ',  1940.000,  -110.343,  1500.340, -1000.000,1.08000,     0,  4830.000, 0.00000E+0, 2.30790E-1, 0.00000E+0, 0.00000E+0,1.00000,1,  100.0,  9999.000,     0.000,   1,1.0000
    70,'1 ',  1301.000,  -106.003,   692.000,  -711.000,1.03000,     0,  2822.000, 0.00000E+0, 4.78700E-1, 0.00000E+0, 0.00000E+0,1.00000,1,  100.0,  9999.000,     0.000,   1,1.0000
    77,'1 ',  1940.333,   468.305,  2649.000, -1850.000,1.04512,     0, 10522.000, 0.00000E+0, 3.20240E-1, 0.00000E+0, 0.00000E+0,1.00000,1,  100.0,  9999.000,     0.000,   1,1.0000
    77,'2 ',  3880.665,   936.609,  2649.000, -1850.000,1.04512,     0, 10522.000, 0.00000E+0, 3.20240E-1, 0.00000E+0, 0.00000E+0,1.00000,1,  100.0,  9999.000,     0.000,   1,1.0000
    79,'1 ',  4930.000,   946.342,  5780.000, -2000.000,1.06470,     0, 14469.000, 0.00000E+0, 1.61000E-1, 0.00000E+0, 0.00000E+0,1.00000,1,  100.0,  9999.000,     0.000,   1,1.0000
    79,'2 ',  4930.000,   946.342,  5780.000, -2000.000,1.06470,     0,  7000.000, 0.00000E+0, 1.61000E-1, 0.00000E+0, 0.00000E+0,1.00000,1,  100.0,  9999.000,     0.000,   1,1.0000
   103,'1 ',   382.500,    63.680,   330.000,  -310.000,1.05077,     0,  1250.000, 0.00000E+0, 3.11000E-1, 0.00000E+0, 0.00000E+0,1.00000,1,  100.0,  9999.000,     0.000,   1,1.0000
   103,'2 ',   382.500,    63.680,   330.000,  -310.000,1.05077,     0,  1250.000, 0.00000E+0, 3.11000E-1, 0.00000E+0, 0.00000E+0,1.00000,1,  100.0,  9999.000,     0.000,   1,1.0000
   112,'1 ',   528.500,   423.276,  1500.000, -1000.000,1.07075,     0,  2000.000, 0.00000E+0, 5.14680E-1, 0.00000E+0, 0.00000E+0,1.00000,1,  100.0,  9999.000,     0.000,   1,1.0000