     4 'GENROU' 1     3.9000      0.32000E-01  0.54000      0.62000E-01
          2.6400      5.0      1.8600       1.7800      0.25000    
         0.45300      1.95000E-1     0.14500       1.9714       6.9000    /
     4 'IEEEST' 1          3            0
	      0.0000           0.00000    0.0000      0.00000       0.0000
		  0.0000           0.00000    0.0000      0.00000       0.7500
		  1.0000           4.20000    -2      0.10000       -0.1000
		  0.0000           0.00000/
      4 'ESST4B' 1    0   3.61     3.61        1.0    
          -0.8       0.01       1.0       0.0000       1.0    
         -0.8       0       5.54      0       6.92    
         0.08  0   0    /
      4 'IEEEG1' 1          0           0        10.000      0.10000    
          0.0000      0.20000       1.0000      -1.0000      0.95000    
          0.0000      0.10000       0.0000       0.0000       0.0000    
          0.0000       0.0000       0.0000      0.30000       0.0000    
          8.7200      0.70000       0.0000    /

	
      6 'GENROU' 1     4.0000      0.32000E-01  0.52000      0.63000E-01
         0.870         0.3    1.8100       1.7300      0.24500    
         0.51000      1.90000E-1     0.14000       1.7850       7.1400    /
      6 'IEE2ST' 1          2            0            0            0
          5.5000       0.0000      0.30000E-01   0.0000       10.000    
          10.000      0.40000      0.40000E-01   0.0000       0.0000    
          0.0000       0.0000      0.50000E-01 -0.50000E-01   0.0000    
          0.0000    /
      6 'ESST4B' 1     0   3.61     3.61        1.0    
          -0.8       0.01       1.0       0.0000       1.0    
         -0.8       0       5.54      0       6.92    
         0.08  0   0    /
      6 'IEEEG1' 1          0           0        3.000      0.10000    
          0.0000      0.20000       1.0000      -1.0000      0.95000    
          0.0000      0.10000       0.0000       0.0000       0.0000    
          0.0000       0.0000       0.0000      0.30000       0.0000    
          8.7200      0.70000       0.0000    /
      
      6 'GENROU' 2     4.0000      0.32000E-01  0.52000      0.63000E-01
          1.74         0.7     1.8100       1.7300      0.24500    
         0.51000      1.90000E-1     0.14000       1.7850       7.1400    /
      6 'IEE2ST' 2          2            0            0            0
          5.5000       0.0000      0.30000E-01   0.0000       10.000    
          10.000      0.40000      0.40000E-01   0.0000       0.0000    
          0.0000       0.0000      0.50000E-01 -0.50000E-01   0.0000    
          0.0000    /
      6 'ESST4B' 2     0   3.61     3.61        1.0    
          -0.8       0.01       1.0       0.0000       1.0    
         -0.8       0       5.54      0       6.92    
         0.08  0   0    /
      6 'IEEEG1' 2          0           0        7.000      0.10000    
          0.0000      0.20000       1.0000      -1.0000      0.95000    
          0.0000      0.10000       0.0000       0.0000       0.0000    
          0.0000       0.0000       0.0000      0.30000       0.0000    
          8.7200      0.70000       0.0000    /




      9 'GENROU' 1     8.4000      0.35000E-01  0.46000      0.70000E-01
          3.4200      1.0       1.7600       1.5800      0.28500    
         0.48500     2.05000E-1     0.15500       1.8429       6.4500    /
      9 'IEE2ST' 1          1            0            0            0
          10.000       0.0000       0.0000       0.0000       3.0000    
          3.0000      0.15000      0.50000E-01  0.15000      0.50000E-01
         0.15000      0.50000E-01  0.50000E-01 -0.50000E-01   0.0000    
          0.0000    /
      9 'EXST1'  1    0.20000E-01   99.000      -99.000       0.0000    
         0.20000E-01   50.00      0.20000E-01   9999.0      -9999.0    
          0.0000      0.10000E-01   1.0000    /
      9 'IEEEG1' 1          0           0        10.000      0.10000    
          0.0000      0.20000       1.0000      -1.0000      0.95000    
          0.0000      0.10000       0.0000       0.0000       0.0000    
          0.0000       0.0000       0.0000      0.30000       0.0000    
          8.7200      0.70000       0.0000    /


     11 'GENROU' 1     4.5000      0.40000E-01  0.50000      0.60000E-01
          2.4500       1.0       1.7000       1.6500      0.25000    
         0.50000      1.90000E-1     0.14000       1.7850       7.1400    /
     11 'IEE2ST' 1          2            0            0            0
          0.0000       0.0000      0.25000E-01   0.0000      0.16000E-01
         0.16000E-01  0.26000      0.26000E-01  0.26000      0.26000E-01
          0.0000       0.0000      0.10000     -0.10000       0.0000    
          0.0000    /
     11 'IEEEX1' 1    0.20000E-01   50.00      0.50000E-01  0.20000E-01
          0.0000       3.0000      -3.0000       0.0000      0.51200    
         0.70000E-01   1.3000       0.0000       5.3100      0.50000    
          3.9825       1.0490    /
     11 'IEEEG1' 1          0           0        10.000      0.10000    
          0.0000      0.20000       1.0000      -1.0000      0.95000    
          0.0000      0.10000       0.0000       0.0000       0.0000    
          0.0000       0.0000       0.0000      0.30000       0.0000    
          8.7200      0.70000       0.0000    /


     13 'GENROU' 1     4.2000      0.32000E-01  0.60000      0.66000E-01
          3.5900       1.0       1.7600       1.6800      0.22000    
         0.40000      1.75000E-1     0.13000       1.9225       7.6900    /
     13 'IEE2ST' 1          1            0            0            0
          10.000       0.0000       0.0000       0.0000       3.0000    
          3.0000      0.15000      0.50000E-01  0.15000      0.50000E-01
         0.15000      0.50000E-01  0.50000E-01 -0.50000E-01   0.0000    
          0.0000    /
     13 'EXST1'  1    0.20000E-01   99.000      -99.000       1.0000    
          10.000       75.00      0.20000E-01   9999.0      -9999.0    
          0.0000      0.10000E-01   1.0000    /
     13 'IEEEG1' 1          0           0        10.000      0.10000    
          0.0000      0.20000       1.0000      -1.0000      0.95000    
          0.0000      0.10000       0.0000       0.0000       0.0000    
          0.0000       0.0000       0.0000      0.30000       0.0000    
          8.7200      0.70000       0.0000    /


     15 'GENROU' 1     8.2000      0.33000E-01  0.48000      0.55000E-01
          3.8300       1.0       1.9800       1.8500      0.37500    
         0.56700     2.85000E-1     0.22500       1.4800       4.4400    /
     15 'IEE2ST' 1          1            0            0            0
          10.000       0.0000       0.0000       0.0000       3.0000    
          3.0000      0.15000      0.50000E-01  0.15000      0.50000E-01
         0.15000      0.50000E-01  0.50000E-01 -0.50000E-01   0.0000    
          0.0000    /
     15 'ESST4B' 1    0   3.61     3.61        1.0    
          -0.8       0.01       1.0       0.0000       1.0    
         -0.8       0       5.54      0       6.92    
         0.08  0   0    /
     15 'IEEEG1' 1          0           0        10.000      0.10000    
          0.0000      0.20000       1.0000      -1.0000      0.95000   
          0.0000      0.10000       0.0000       0.0000       0.0000    
          0.0000       0.0000       0.0000      0.30000       0.0000    
          8.7200      0.70000       0.0000    /


     18 'GENROU' 1     3.8000      0.31000E-01  0.49000      0.58000E-01
          2.6300       1.0       1.6700      0.61000      0.26000    
         0.45300      2.05000E-1     0.14500       1.9714       6.9000    /
     18 'IEE2ST' 1          2            0            0            0
          0.0000       0.0000       0.0000       0.0000       30.000    
          30.000      0.23000      0.25000E-01  0.23000      0.25000E-01
          0.0000       0.0000      0.60000E-01 -0.60000E-01   0.0000    
          0.0000    /
     18 'IEEEX1' 1    0.20000E-01   25.000      0.20000E-01  0.20000E-01
          0.0000       3.0000      -3.0000       0.0000      0.64200    
         0.10300      0.99400       0.0000       3.4600      0.35600    
          2.5950       1.0000    /
     18 'IEEEG1' 1          0           0        10.000      0.10000    
          0.0000      0.20000       1.0000      -1.0000      0.95000    
          0.0000      0.10000       0.0000       0.0000       0.0000    
          0.0000       0.0000       0.0000      0.30000       0.0000    
          8.7200      0.70000       0.0000    /






     30 'GENROU' 1     8.0000      0.50000E-01  0.20000      0.80000E-01
          1.44      0.3      0.90000      0.60000      0.25000    
         0.60000      1.50000E-1     0.90000E-01   2.2000       11.000    /
     30 'IEE2ST' 1          3            0            0            0
         -3.5000       0.0000       0.0000       0.0000       1.0000    
          1.0000       0.0000       3.0000      0.80000E-01  0.27000E-01
         0.80000E-01  0.27000E-01  0.10000     -0.10000       0.0000    
          0.0000    /
     30 'EXST1'  1    0.20000E-01   99.000      -99.000       0.0000    
         0.20000E-01   72.5      0.20000E-01   9999.0      -9999.0    
          0.0000      0.10000E-01   1.5000    /
     30 'IEEEG1' 1          0           0        3.000      0.10000    
          0.0000      0.20000       1.0000      -1.0000      0.95000    
          0.0000      0.10000       0.0000       0.0000       0.0000    
          0.0000       0.0000       0.0000      0.30000       0.0000    
          8.7200      0.70000       0.0000    /

     30 'GENROU' 2     8.0000      0.50000E-01  0.20000      0.80000E-01
         2.88       0.7    0.90000      0.60000      0.25000    
         0.60000      1.50000E-1     0.90000E-01   2.2000       11.000    /
     30 'IEE2ST' 2          3            0            0            0
         -3.5000       0.0000       0.0000       0.0000       1.0000    
          1.0000       0.0000       3.0000      0.80000E-01  0.27000E-01
         0.80000E-01  0.27000E-01  0.10000     -0.10000       0.0000    
          0.0000    /
     30 'EXST1'  2    0.20000E-01   99.000      -99.000       0.0000    
         0.20000E-01   72.5      0.20000E-01   9999.0      -9999.0    
          0.0000      0.10000E-01   1.5000    /
     30 'IEEEG1' 2          0           0        7.000      0.10000    
          0.0000      0.20000       1.0000      -1.0000      0.95000    
          0.0000      0.10000       0.0000       0.0000       0.0000    
          0.0000       0.0000       0.0000      0.30000       0.0000    
          8.7200      0.70000       0.0000    /






     35 'GENROU' 1     4.6000      0.40000E-01  0.37000      0.10000    
          0.98       0.3      1.8250       1.7800      0.29100    
         0.44000      2.50000E-1     0.23900       1.3933       4.1800    /
     35 'IEE2ST' 1          1            0            0            0
          10.000       0.0000      0.10000       0.0000       1.0000    
          1.0000      0.20000      0.10000E-01   0.0000       0.0000    
          0.0000       0.0000      0.50000E-01 -0.50000E-01   0.0000    
          0.0000    /
     35 'EXST1'  1    0.20000E-01   99.000      -99.000       0.0000    
         0.20000E-01   50.00      0.80000E-01   9999.0      -9999.0    
          0.0000      0.15000E-01   1.0000    /
     35 'IEEEG1' 1          0           0        3.000      0.10000    
          0.0000      0.20000       1.0000      -1.0000      0.95000    
          0.0000      0.10000       0.0000       0.0000       0.0000    
          0.0000       0.0000       0.0000      0.30000       0.0000    
          8.7200      0.70000       0.0000    /

     35 'GENROU' 2     4.6000      0.40000E-01  0.37000      0.10000    
         1.96       0.7      1.8250       1.7800      0.29100    
         0.44000      2.50000E-1     0.23900       1.3933       4.1800    /
     35 'IEE2ST' 2          1            0            0            0
          10.000       0.0000      0.10000       0.0000       1.0000    
          1.0000      0.20000      0.10000E-01   0.0000       0.0000    
          0.0000       0.0000      0.50000E-01 -0.50000E-01   0.0000    
          0.0000    /
     35 'EXST1'  2    0.20000E-01   99.000      -99.000       0.0000    
         0.20000E-01   50.00      0.80000E-01   9999.0      -9999.0    
          0.0000      0.15000E-01   1.0000    /
     35 'IEEEG1' 2          0           0        7.000      0.10000    
          0.0000      0.20000       1.0000      -1.0000      0.95000    
          0.0000      0.10000       0.0000       0.0000       0.0000    
          0.0000       0.0000       0.0000      0.30000       0.0000    
          8.7200      0.70000       0.0000    /







     36 'GENROU' 1     4.1000      0.33000E-01  0.56000      0.62000E-01
          2.3200       1.0       2.0700       1.9900      0.28000    
         0.49000      2.15000E-1     0.15500       1.8429       6.4500    /
     36 'IEE2ST' 1          1            0            0            0
          10.000       0.0000       0.0000       0.0000       3.0000    
          3.0000      0.15000      0.50000E-01  0.15000      0.50000E-01
         0.15000      0.50000E-01  0.50000E-01 -0.50000E-01   0.0000    
          0.0000    /
     36 'EXST1'  1    0.20000E-01   99.000      -99.000       0.0000    
         0.20000E-01   50.00      0.36000       9999.0      -9999.0    
          0.0000      0.30000E-01   1.0000    /
     36 'IEEEG1' 1          0           0        10.000      0.10000    
          0.0000      0.20000       1.0000      -1.0000      0.95000    
          0.0000      0.10000       0.0000       0.0000       0.0000    
          0.0000       0.0000       0.0000      0.30000       0.0000    
          8.7200      0.70000       0.0000    /


     40 'GENROU' 1     9.8000      0.28000E-01  0.20000      0.16000    
          6.4100      1.0      0.99500      0.56800      0.19500    
         0.56800      1.0000E-1     0.89000E-01   2.2400       11.200    /
     40 'IEE2ST' 1          2            0            0            0
          0.0000       0.0000       0.0000       0.0000       15.000    
          15.000       0.0000      0.53000E-01   0.0000      0.53000E-01
          0.0000       0.0000      0.50000E-01 -0.50000E-01   0.0000    
          0.0000    /
     40 'EXST1'  1    0.20000E-01   99.000      -99.000       0.0000    
         0.20000E-01   75.00      0.16000       9999.0      -9999.0    
          0.0000      0.10000E-01   1.0000    /
     40 'IEEEG1' 1          0           0        10.000      0.10000    
          0.0000      0.30000       1.0000      -1.0000      0.95000    
          0.0000      0.10000       0.0000       0.0000       0.0000    
          0.0000       0.0000       0.0000      0.30000       0.0000    
          10.000      0.70000       0.0000    /

     43 'GENROU' 1     4.8000      0.37000E-01  0.50000      0.75000E-01
          4.1300       1.0       1.7000       1.6200      0.25600    
         0.41000      1.0000E-1     0.15500       1.8429       6.4500    /
     43 'IEE2ST' 1          3            0            0            0
          0.0000       0.0000      0.30000E-01   0.0000       1.5000    
          1.5000      0.37500       12.000       0.0000       0.0000    
          0.0000       0.0000      0.50000E-01 -0.50000E-01   0.0000    
          0.0000    /
     43 'IEEEX1' 1    0.20000E-01   20.000      0.20000      0.20000E-01
          0.0000       2.0000      -2.0000       0.0000      0.54500    
         0.90000E-01   1.0000       0.0000       4.1300      0.41000    
          3.0975       1.0000    /
     43 'IEEEG1' 1          0           0        10.000      0.80000E-01
          0.0000      0.15000       1.0000      -1.0000      0.95000    
          0.0000      0.50000E-01   0.0000       0.0000       0.0000    
          0.0000       0.0000       0.0000      0.28000       0.0000    
          10.000      0.72000       0.0000    /





     45 'GENROU' 1     4.7000      0.31000E-01  0.67000      0.61000E-01
          0.96       0.3       1.9900       1.9000      0.24500    
         0.42000      1.0000E-1     0.15000       1.9057       6.6700    /
     45 'IEE2ST' 1          1            0            0            0
          3.0000       0.0000       0.0000       0.0000       10.000    
          10.000      0.30000      0.30000E-01  0.30000      0.30000E-01
          0.0000       0.0000      0.10000     -0.10000       0.0000    
          0.0000    /
     45 'ESST4B' 1     0   3.61     3.61        1.1    
          -0.8       0.01       1.0       0.0000       1.1    
         -0.8       0       5.54      0       6.92    
         0.08  0   0    /
     45 'IEEEG1' 1          0           0        3.000      0.10000    
          0.0000      0.20000       1.0000      -1.0000      0.95000    
          0.0000      0.10000       0.0000       0.0000       0.0000    
          0.0000       0.0000       0.0000      0.30000       0.0000    
          8.7200      0.70000       0.0000    /


     45 'GENROU' 2     4.7000      0.31000E-01  0.67000      0.61000E-01
          1.92       0.7      1.9900       1.9000      0.24500    
         0.42000      1.0000E-1     0.15000       1.9057       6.6700    /
     45 'IEE2ST' 2          1            0            0            0
          3.0000       0.0000       0.0000       0.0000       10.000    
          10.000      0.30000      0.30000E-01  0.30000      0.30000E-01
          0.0000       0.0000      0.10000     -0.10000       0.0000    
          0.0000    /
     45 'ESST4B' 2     0   3.61     3.61        1.1    
          -0.8       0.01       1.0       0.0000       1.1    
         -0.8       0       5.54      0       6.92    
         0.08  0   0    /
     45 'IEEEG1' 2          0           0        7.000      0.10000    
          0.0000      0.20000       1.0000      -1.0000      0.95000    
          0.0000      0.10000       0.0000       0.0000       0.0000    
          0.0000       0.0000       0.0000      0.30000       0.0000    
          8.7200      0.70000       0.0000    /









     47 'GENROU' 1     7.4000      0.30000E-01  0.20000      0.16000    
          3.8000      1.0      0.61900      0.36500      0.23800    
         0.36500     1.00000E-1     0.14000       1.7850       7.1400    /
     47 'IEE2ST' 1          1            0            0            0
          10.000       0.0000       0.0000       0.0000       3.0000    
          3.0000      0.15000      0.50000E-01  0.15000      0.50000E-01
         0.15000      0.50000E-01  0.50000E-01 -0.50000E-01   0.0000    
          0.0000    /
     47 'EXST1'  1    0.20000E-01   99.000      -99.000       0.0000    
         0.20000E-01   50.00      0.16000       9999.0      -9999.0    
          0.0000      0.15000E-01   1.0000    /
     47 'IEEEG1' 1          0           0        10.000      0.90000E-01
          0.0000      0.20000       1.0000      -1.0000      0.95000    
          0.0000      0.30000       0.1000      0.0000       0.0000    
          0.0000       0.0000       0.0000       0.0000       0.0000    
          0.0000       1.0000       0.0000    /

     65 'GENROU' 1     4.7800      0.41000E-01  0.53000      0.67000E-01
         1.12         0.3      1.602593       1.58184      0.28525   
         0.451216      2.307941E-1     0.165964       1.9475       7.7900    /
     65 'IEE2ST' 1          1            0            0            0
          3.0000       0.0000      0.30000E-01   0.0000       20.000    
          20.000       6.7200      0.67200       0.0000       0.0000    
          0.0000       0.0000      0.10000     -0.10000       0.0000    
          0.0000    /
     65 'EXST1'  1    0.20000E-01   99.000      -99.000       0.0000    
         0.20000E-01   47.50      0.13000       9999.0      -9999.0    
          0.0000      0.20000E-01   1.0000    /
     65 'IEEEG1' 1          0           0        3.000      0.10000    
          0.0000      0.20000       1.0000      -1.0000      0.95000    
          0.0000      0.50000       0.0000       0.0000       0.0000    
          0.0000       0.0000       0.0000      0.30000       0.0000    
          8.7200      0.70000       0.0000    /
     65 'GENROU' 2     4.7800      0.41000E-01  0.53000      0.67000E-01
         1.24          0.7      1.602593       1.58184      0.28525   
         0.451216      2.307941E-1     0.165964       1.9475       7.7900    /
     65 'IEE2ST' 2          1            0            0            0
          3.0000       0.0000      0.30000E-01   0.0000       20.000    
          20.000       6.7200      0.67200       0.0000       0.0000    
          0.0000       0.0000      0.10000     -0.10000       0.0000    
          0.0000    /
     65 'EXST1'  2    0.20000E-01   99.000      -99.000       0.0000    
         0.20000E-01   47.50      0.13000       9999.0      -9999.0    
          0.0000      0.20000E-01   1.0000    /
     65 'IEEEG1' 2          0           0        7.000      0.10000    
          0.0000      0.20000       1.0000      -1.0000      0.95000    
          0.0000      0.50000       0.0000       0.0000       0.0000    
          0.0000       0.0000       0.0000      0.30000       0.0000    
          8.7200      0.70000       0.0000    /















     70 'GENROU' 1     4.0000      0.20000E-01  0.20000      0.50000E-01
          3.0000      1.0      1.4846      0.83403      0.61720    
         0.83403     4.787000E-1     0.40033       1.3900       4.1700    /
     70 'IEE2ST' 1          1            0            0            0
          10.000       0.0000       0.0000       0.0000       3.0000    
          3.0000      0.15000      0.50000E-01  0.15000      0.50000E-01
         0.15000      0.50000E-01  0.50000E-01 -0.50000E-01   0.0000    
          0.0000    /
     70 'EXST1'  1    0.20000E-01   99.000      -99.000       0.0000    
         0.20000E-01   50.00      0.16000       9999.0      -9999.0    
          0.0000      0.26000E-01   1.0000    /
     70 'IEEEG1' 1          0           0        10.000      0.10000    
          0.0000      0.20000       1.0000      -1.0000      0.95000    
          0.0000      0.10000       0.3000      0.0000       0.0000    
          0.0000       0.0000       0.0000      0.30000       0.0000    
          8.7200      0.70000       0.0000    /





     77 'GENROU' 1     8.0000      0.30000E-01  0.20000      0.60000E-01
          1.22         0.3    1.200885      0.84062      0.460985    
         0.84062      3.202361E-1     0.309906       1.3900       4.1700    /
     77 'IEE2ST' 1          3            0            0            0
        -0.40000E-01   0.0000       0.0000       0.0000       29.500    
          29.500       1.5000      0.15000       1.5000      0.15000    
          0.0000       0.0000      0.90000E-01 -0.90000E-01   0.0000    
          0.0000    /
     77 'IEEEX1' 1    0.20000E-01   20.000      0.60000E-01  0.20000E-01
          0.0000       3.0000      -3.0000       0.0000      0.13000    
         0.50000E-01   1.3000       0.0000       4.5000      0.30000    
          3.3750       1.0000    /
     77 'IEEEG1' 1          0           0        3.000      0.10000    
          0.0000      0.20000       1.0000      -1.0000      1.05000    
          0.0000      0.80000       0.0000      0.0000       0.0000    
          0.0000       0.0000       0.0000      0.30000       0.0000    
          8.7200      0.70000       0.0000    /
     77 'GENROU' 2     8.0000      0.30000E-01  0.20000      0.60000E-01
          2.44         0.7      1.200885      0.84062      0.460985    
         0.84062      3.202361E-1     0.309906       1.3900       4.1700    /
     77 'IEE2ST' 2          3            0            0            0
        -0.40000E-01   0.0000       0.0000       0.0000       29.500    
          29.500       1.5000      0.15000       1.5000      0.15000    
          0.0000       0.0000      0.90000E-01 -0.90000E-01   0.0000    
          0.0000    /
     77 'IEEEX1' 2    0.20000E-01   20.000      0.60000E-01  0.20000E-01
          0.0000       3.0000      -3.0000       0.0000      0.13000    
         0.50000E-01   1.3000       0.0000       4.5000      0.30000    
          3.3750       1.0000    /
     77 'IEEEG1' 2          0           0        7.000      0.10000    
          0.0000      0.20000       1.0000      -1.0000      1.05000    
          0.0000      0.80000       0.0000      0.0000       0.0000    
          0.0000       0.0000       0.0000      0.30000       0.0000    
          8.7200      0.70000       0.0000    /
















     79 'GENROU' 1     7.2000      0.43000E-01  0.20000      0.79000E-01
          1.73       0.5   0.63800      0.42400      0.22800    
         0.42400      1.61000E-1     0.12700       1.9675       7.8700    /
     79 'IEE2ST' 1          3            0            0            0
        -0.60000E-01   0.0000       0.0000       0.0000       29.500    
          29.500       1.5000      0.15000       1.5000      0.15000    
          0.0000       0.0000      0.90000E-01 -0.90000E-01   0.0000    
          0.0000    /
     79 'IEEEX1' 1    0.20000E-01   20.000      0.10000      0.20000E-01
          0.0000       3.0000      -3.0000       0.0000      0.57000    
         0.50000E-01   1.2000       0.0000       4.5000      0.30000    
          3.3750       1.0000    /
     79 'IEEEG1' 1          0           0        5.000      0.10000    
          0.0000      0.20000       1.0000      -1.0000      0.95000    
          0.0000      0.10000       0.0000       0.0000       0.0000    
          0.0000       0.0000       0.0000      0.30000       0.0000    
          8.7200      0.70000       0.0000    /     
     79 'GENROU' 2     7.2000      0.43000E-01  0.20000      0.79000E-01
          1.73      0.5     0.63800      0.42400      0.22800    
         0.42400      1.61000E-1     0.12700       1.9675       7.8700    /
     79 'IEE2ST' 2          3            0            0            0
        -0.60000E-01   0.0000       0.0000       0.0000       29.500    
          29.500       1.5000      0.15000       1.5000      0.15000    
          0.0000       0.0000      0.90000E-01 -0.90000E-01   0.0000    
          0.0000    /
     79 'IEEEX1' 2    0.20000E-01   20.000      0.10000      0.20000E-01
          0.0000       3.0000      -3.0000       0.0000      0.57000    
         0.50000E-01   1.2000       0.0000       4.5000      0.30000    
          3.3750       1.0000    /
     79 'IEEEG1' 2          0           0        5.000      0.10000    
          0.0000      0.20000       1.0000      -1.0000      0.95000    
          0.0000      0.10000       0.0000       0.0000       0.0000    
          0.0000       0.0000       0.0000      0.30000       0.0000    
          8.7200      0.70000       0.0000    /














    103 'GENROU' 1     6.1200      0.52000E-01   1.5000      0.14400    
          3.4600       1.0       2.1290       2.0740      0.46700    
          1.2700      3.11000E-1     0.25000       1.3333       4.0000    /
    103 'IEE2ST' 1          1            0            0            0
          10.000       0.0000       0.0000       0.0000       3.0000    
          3.0000      0.15000      0.50000E-01  0.15000      0.50000E-01
         0.15000      0.50000E-01  0.50000E-01 -0.50000E-01   0.0000    
          0.0000    /
    103 'EXST1'  1    0.20000E-01   99.000      -99.000      0.20000E-01
         0.20000E-01  40      0.20000E-01   9999.0      -9999.0    
          0.0000      0.10000E-01   1.0000    /
    103 'IEEEG1' 1          0           0        20.000      0.10000    
          0.0000      0.20000       1.0000      -1.0000      0.95000    
          0.0000      0.10000       0.0000       0.0000       0.0000    
          0.0000       0.0000       0.0000      0.30000       0.0000    
          8.7200      0.70000       0.0000    /

    103 'GENROU' 2     6.1200      0.52000E-01   1.5000      0.14400    
          3.4600       1.0       2.1290       2.0740      0.46700    
          1.2700      3.11000E-1     0.25000       1.3333       4.0000    /
    103 'IEE2ST' 2          1            0            0            0
          10.000       0.0000       0.0000       0.0000       3.0000    
          3.0000      0.15000      0.50000E-01  0.15000      0.50000E-01
         0.15000      0.50000E-01  0.50000E-01 -0.50000E-01   0.0000    
          0.0000    /
    103 'EXST1'  2    0.20000E-01   99.000      -99.000      0.20000E-01
         0.20000E-01  40      0.20000E-01   9999.0      -9999.0    
          0.0000      0.10000E-01   1.0000    /
    103 'IEEEG1' 2          0           0        20.000      0.10000    
          0.0000      0.20000       1.0000      -1.0000      0.95000    
          0.0000      0.10000       0.0000       0.0000       0.0000    
          0.0000       0.0000       0.0000      0.30000       0.0000    
          8.7200      0.70000       0.0000    /


    112 'GENROU' 1     4.0000      0.51000E-01  0.20000      0.33000E-01
         2.195       0.5      2.05479      1.31115      0.62622    
         1.31115      5.146771E-1     0.273973       1.7850       7.1400    /
    112 'IEEEST' 1          3            0
	      0.0000           0.00000    0.0000      0.00000       0.0000
		  0.0000           0.00000    0.0000      0.00000       0.7500
		  1.0000           4.20000    -2.00      0.10000       -0.1000
		  0.0000           0.00000/
    112 'IEEEX1' 1    0.20000E-01   40.5      0.60000E-01  0.20000E-01
          0.0000       2.0000      -2.0000       0.0000      0.50000    
         0.50000E-01   1.0000       0.0000       3.5000      0.54000    
          2.6250       1.0000    /
    112 'IEEEG1' 1          0           0        10.000      0.10000    