     30 'GENROU' 1     9.0000      0.50000E-01   1.5000      0.50000E-01
          4.2000       0.0000       1.0000      0.69000      0.30000
         0.31000      0.20000      0.12500      0.40000      0.80000    /

     30 'EXST1'  1    0.10000E-01  1000.00       -1000.00      0.30000E-02
         0.50000E-01   100.00      0.50000E-01   5.0000      -5.0000
          0.0000      0.10000       1.0000    / The limiters are not effective (1000, -1000)

     31 'GENROU' 1     6.5600      0.50000E-01   1.5000      0.50000E-01
          3.0300       0.0000       2.4900       2.3000      0.69100
         0.69700      0.20000      0.19000      0.40000      0.80000    /

     31 'EXST1'  1    0.10000E-01  1000.00       -1000.00      0.30000E-02
         0.50000E-01   150.00      0.50000E-01   5.0000      -5.0000
          0.0000      0.10000       1.0000    / The limiters are not effective (1000, -1000)

     32 'GENROU' 1     6.5600      0.50000E-01   1.5000      0.50000E-01
          3.0300       0.0000       2.4900       2.3000      0.69100
         0.69700      0.20000      0.19000      0.40000      0.80000    /

     32 'EXST1'  1    0.10000E-01  1000.00       -1000.00      0.30000E-02
         0.50000E-01   180.00      0.50000E-01   5.0000      -5.0000
          0.0000      0.10000       1.0000    / The limiters are not effective (1000, -1000)

     32 'STAB1' 1  4.000 1.000 5.0000  0.100  1.000 0.1  0.200 /
	
     32 'TGOV1' 1  0.05 0.5 1000.0 -1000.0 1.0 1.0 0.0     / The limiters are not effective (1000, -1000)


     33 'GENROU' 1     6.5600      0.50000E-01   1.5000      0.50000E-01
          3.0300       0.0000       2.4900       2.3000      0.69100
         0.69700      0.20000      0.19000      0.40000      0.80000    /

     33 'EXST1'  1    0.10000E-01  1000.00       -1000.00      0.30000E-02
         0.50000E-01   200.00      0.50000E-01   5.0000      -5.0000
          0.0000      0.10000       1.0000    / The limiters are not effective (1000, -1000)

     34 'GENROU' 1     5.4000      0.50000E-01  0.44000      0.50000E-01
          2.6000       0.0000       2.3000       2.1500       1.1000
          1.3200      0.20000      0.17000      0.40000      0.80000    /

     34 'EXST1'  1    0.20000E-01  1000.00       -1000.00      0.30000E-02
         0.50000E-01   200.00      0.50000E-01   5.0000      -5.0000
          0.0000      0.10000       1.0000    / The limiters are not effective (1000, -1000)

     34 'STAB1' 1  4.000 1.000 5.0000  0.100  1.000 0.1  0.200 /

     35 'GENROU' 1     7.3000      0.50000E-01  0.40000      0.50000E-01
          3.4800       0.0000       2.4900       2.4100      0.49000
         0.50000      0.20000      0.18000      0.40000      0.80000    /

     35 'EXST1'  1    0.30000E-01  1000.00       -1000.00    0.30000E-02
         0.50000E-01   200.00      0.50000E-01   5.0000      -5.0000
          0.0000      0.10000       1.0000    /

     35 'TGOV1' 1  0.05 0.5 1000.0 -1000.0 1.0 1.0 0.0     / The limiters are not effective (1000, -1000)

     36 'GENROU' 1     7.3000      0.50000E-01  0.40000      0.50000E-01
          3.4800       0.0000       2.4900       2.4100      0.49000
         0.50000      0.20000      0.18000      0.40000      0.80000    /

     36 'EXST1'  1    0.10000E-01  1000.00       -1000.00      0.30000E-02
         0.50000E-01   200.00      0.50000E-01   5.0000      -5.0000
          0.0000      0.10000       1.0000    / The limiters are not effective (1000, -1000)

     37 'GENROU' 1     6.7000      0.50000E-01  0.41000      0.50000E-01
          2.4300       0.0000       2.4900       2.3000      0.57000
         0.57100      0.20000      0.19000      0.40000      0.80000    /

     37 'TGOV1' 1  0.05 0.5 1000.0 -1000.0 1.0 1.0 0.0     / The limiters are not effective (1000, -1000)

     38 'GENROU' 1     4.7900      0.50000E-01   1.5000      0.50000E-01
          3.4500       0.0000       2.1060       2.0500      0.57000
         0.57200      0.20000      0.12000      0.40000      0.80000    /

     38 'EXST1'  1    0.10000E-01  1000.00       -1000.00    0.40000E-02
         0.50000E-01   200.00      0.50000E-01   5.0000      -5.0000
          0.0000      0.10000       1.0000    / The limiters are not effective (1000, -1000)

     39 'GENCLS' 1  50.000  0 /