0,   100.00,  32, 0, 1, 50.00     / PSS(R)E 32 RAW created by rawd32  MON, MAR 21 2016  16:48
NEW ENGLAND TEST SYSTEM, 39 BUSES, 9 GENERATORS,,,,,,,,,,,,,
CREATED BY PABLO LEDESMA PABLOLE@ING.UC3M.ES,,,,,,,,,,,,,,,,
     1,'B1          ',   1.0000,1,   1,   1,   1,1.03147,  -9.8140
     2,'B2          ',   1.0000,1,   1,   1,   1,1.00571,  -7.7388
     3,'B3          ',   1.0000,1,   1,   1,   1,0.95958, -10.9999
     4,'B4          ',   1.0000,1,   1,   1,   1,0.89837, -11.7620
     5,'B5          ',   1.0000,1,   1,   1,   1,0.88030,  -8.6913
     6,'B6          ',   1.0000,1,   1,   1,   1,0.87981,  -7.4624
     7,'B7          ',   1.0000,1,   1,   1,   1,0.82348, -10.3525
     8,'B8          ',   1.0000,1,   1,   1,   1,0.84314, -11.2089
     9,'B9          ',   1.0000,1,   1,   1,   1,0.96516, -11.1464
    10,'B10         ',   1.0000,1,   1,   1,   1,0.88462,  -6.0798
    11,'B11         ',   1.0000,1,   1,   1,   1,0.87862,  -4.3763
    12,'B12         ',   1.0000,1,   1,   1,   1,0.81048, -21.9178
    13,'B13         ',   1.0000,1,   1,   1,   1,0.87079,  -9.7631
    14,'B14         ',   1.0000,1,   1,   1,   1,0.89233, -10.7240
    15,'B15         ',   1.0000,1,   1,   1,   1,0.92313, -10.9047
    16,'B16         ',   1.0000,1,   1,   1,   1,0.95332,  -9.1058
    17,'B17         ',   1.0000,1,   1,   1,   1,0.96032, -10.0921
    18,'B18         ',   1.0000,1,   1,   1,   1,0.95864, -10.9340
    19,'B19         ',   1.0000,1,   1,   1,   1,0.99903,  -3.9841
    20,'B20         ',   1.0000,1,   1,   1,   1,0.99204,  -5.3595
    21,'B21         ',   1.0000,1,   1,   1,   1,0.97066,  -6.4130
    22,'B22         ',   1.0000,1,   1,   1,   1,1.00861,  -1.5643
    23,'B23         ',   1.0000,1,   1,   1,   1,1.00673,  -1.7961
    24,'B24         ',   1.0000,1,   1,   1,   1,0.96471,  -8.9820
    25,'B25         ',   1.0000,1,   1,   1,   1,1.01583,  -6.3973
    26,'B26         ',   1.0000,1,   1,   1,   1,0.99582,  -7.8879
    27,'B27         ',   1.0000,1,   1,   1,   1,0.97290, -10.1945
    28,'B28         ',   1.0000,1,   1,   1,   1,0.99966,  -4.0243
    29,'B29         ',   1.0000,1,   1,   1,   1,1.00233,  -1.0032
    30,'M1          ',   1.0000,2,   1,   1,   1,1.04750,  -5.2770
    31,'M2          ',   1.0000,2,   1,   1,   1,1.04000,   1.3978
    32,'M3          ',   1.0000,2,   1,   1,   1,0.98310,   2.5171
    33,'M4          ',   1.0000,2,   1,   1,   1,0.99720, -28.6917
    34,'M5          ',   1.0000,2,   1,   1,   1,1.01230,  -0.1926
    35,'M6          ',   1.0000,2,   1,   1,   1,1.04930,   3.4743
    36,'M7          ',   1.0000,2,   1,   1,   1,1.06350,   6.3152
    37,'M8          ',   1.0000,2,   1,   1,   1,1.02780,   0.4707
    38,'M9          ',   1.0000,2,   1,   1,   1,1.02650,   6.1510
    39,'M10         ',   1.0000,3,   1,   1,   1,1.03000, -10.9600
 0 /End of Bus data, Begin Load data
     3,'1 ',1,   1,   1,     0.000,     0.000,     0.000,     0.000,   349.698,    -2.606,   1,1
     4,'1 ',1,   1,   1,     0.000,     0.000,     0.000,     0.000,   619.526,    -0.000,   1,1
     5,'1 ',1,   1,   1,     0.000,    -0.000,     0.000,    -0.000,     0.000,   258.088,   1,1
     7,'1 ',1,   1,   1,     0.000,     0.000,     0.000,     0.000,   344.777, -1238.720,   1,1
     8,'1 ',1,   1,   1,     0.000,     0.000,     0.000,     0.000,   734.296,  -247.579,   1,1
    12,'1 ',1,   1,   1,     0.000,     0.000,     0.000,     0.000,    12.940,  -133.967,   1,1
    15,'1 ',1,   1,   1,     0.000,     0.000,     0.000,     0.000,   375.512,  -179.542,   1,1
    16,'1 ',1,   1,   1,     0.000,     0.000,     0.000,     0.000,   362.448,    -0.000,   1,1
    18,'1 ',1,   1,   1,     0.000,     0.000,     0.000,     0.000,   171.928,    -0.000,   1,1
    20,'1 ',1,   1,   1,     0.000,     0.000,     0.000,     0.000,   690.956,  -104.660,   1,1
    21,'1 ',1,   1,   1,     0.000,     0.000,     0.000,     0.000,   290.815,  -122.057,   1,1
    23,'1 ',1,   1,   1,     0.000,     0.000,     0.000,     0.000,   244.202,   -83.473,   1,1
    24,'1 ',1,   1,   1,     0.000,    -0.000,     0.000,    -0.000,   331.591,    99.069,   1,1
    25,'1 ',1,   1,   1,     0.000,     0.000,     0.000,     0.000,   217.073,   -45.740,   1,1
    26,'1 ',1,   1,   1,     0.000,     0.000,     0.000,     0.000,   140.169,   -17.143,   1,1
    27,'1 ',1,   1,   1,     0.000,     0.000,     0.000,     0.000,   296.872,   -79.765,   1,1
    28,'1 ',1,   1,   1,     0.000,     0.000,     0.000,     0.000,   206.140,   -27.619,   1,1
    29,'1 ',1,   1,   1,     0.000,     0.000,     0.000,     0.000,   282.184,  -126.311,   1,1
    31,'1 ',1,   1,   1,     0.000,     0.000,     0.000,     0.000,     8.506,    -4.253,   1,1
    39,'1 ',1,   1,   1,     0.000,     0.000,     0.000,     0.000,  1040.626,  -235.649,   1,1
 0 /End of Load data, Begin Fixed shunt data
     4,'1 ',1,     0.000,   -84.000
    16,'1 ',1,     0.000,  -323.000
    18,'1 ',1,     0.000,   -30.000
 0 /End of Fixed shunt data, Begin Generator data
    30,'1 ',   250.000,   247.207,   800.000,  -500.000,1.04750,     0,  1000.000, 0.00000E+0, 2.00000E-1, 0.00000E+0, 0.00000E+0,1.00000,1,  100.0,  9999.900,     0.000,   1,1.0000
    31,'1 ',   572.930,   714.662,   800.000,  -500.000,1.04000,     0,  1000.000, 0.00000E+0, 2.00000E-1, 0.00000E+0, 0.00000E+0,1.00000,1,  100.0,  9999.900,     0.000,   1,1.0000
    32,'1 ',   650.000,   532.929,   800.000,  -500.000,0.98310,     0,  1000.000, 0.00000E+0, 2.00000E-1, 0.00000E+0, 0.00000E+0,1.00000,1,  100.0,  9999.900,     0.000,   1,1.0000
    33,'1 ',   632.000,   318.581,   800.000,  -500.000,0.99720,     0,  1000.000, 0.00000E+0, 2.00000E-1, 0.00000E+0, 0.00000E+0,1.00000,1,  100.0,  9999.900,     0.000,   1,1.0000
    34,'1 ',   508.000,   111.202,   400.000,  -300.000,1.01230,     0,  1000.000, 0.00000E+0, 2.00000E-1, 0.00000E+0, 0.00000E+0,1.00000,1,  100.0,  9999.900,     0.000,   1,1.0000
    35,'1 ',   650.000,   327.199,   800.000,  -500.000,1.04930,     0,  1000.000, 0.00000E+0, 2.00000E-1, 0.00000E+0, 0.00000E+0,1.00000,1,  100.0,  9999.900,     0.000,   1,1.0000
    36,'1 ',   560.000,   251.050,   800.000,  -500.000,1.06350,     0,  1000.000, 0.00000E+0, 2.00000E-1, 0.00000E+0, 0.00000E+0,1.00000,1,  100.0,  9999.900,     0.000,   1,1.0000
    37,'1 ',   540.000,    71.373,   800.000,  -500.000,1.02780,     0,  1000.000, 0.00000E+0, 2.00000E-1, 0.00000E+0, 0.00000E+0,1.00000,1,  100.0,  9999.900,     0.000,   1,1.0000
    38,'1 ',   830.000,   167.856,   800.000,  -500.000,1.02650,     0,  1000.000, 0.00000E+0, 2.00000E-1, 0.00000E+0, 0.00000E+0,1.00000,1,  100.0,  9999.900,     0.000,   1,1.0000
    39,'1 ',  1042.516,   410.956,  1500.000, -1000.000,1.03000,     0,  1000.000, 0.00000E+0, 2.00000E-2, 0.00000E+0, 0.00000E+0,1.00000,1,  100.0,  9999.900,     0.000,   1,1.0000
 0 /End of Generator data, Begin Branch data
     1,      2,'1 ', 3.50000E-3, 4.11000E-2,   0.69870,    0.00,    0.00,    1.00,  0.00000,  0.00000,  0.00000,  0.00000,1,1,   0.00,   1,1.0000
     1,     39,'1 ', 1.00000E-3, 2.50000E-2,   0.75000,    0.00,    0.00,    1.00,  0.00000,  0.00000,  0.00000,  0.00000,1,1,   0.00,   1,1.0000
     2,      3,'1 ', 1.30000E-3, 1.51000E-2,   0.25720,    0.00,    0.00,    1.00,  0.00000,  0.00000,  0.00000,  0.00000,1,1,   0.00,   1,1.0000
     2,     25,'1 ', 7.00000E-3, 8.60000E-3,   0.14600,    0.00,    0.00,    1.00,  0.00000,  0.00000,  0.00000,  0.00000,1,1,   0.00,   1,1.0000
     3,      4,'1 ', 1.30000E-3, 2.13000E-2,   0.22140,    0.00,    0.00,    1.00,  0.00000,  0.00000,  0.00000,  0.00000,1,1,   0.00,   1,1.0000
     3,     18,'1 ', 1.10000E-3, 1.33000E-2,   0.21380,    0.00,    0.00,    1.00,  0.00000,  0.00000,  0.00000,  0.00000,1,1,   0.00,   1,1.0000
     4,      5,'1 ', 8.00000E-4, 1.28000E-2,   0.13420,    0.00,    0.00,    1.00,  0.00000,  0.00000,  0.00000,  0.00000,1,1,   0.00,   1,1.0000
     4,     14,'1 ', 8.00000E-4, 1.29000E-2,   0.13820,    0.00,    0.00,    1.00,  0.00000,  0.00000,  0.00000,  0.00000,1,1,   0.00,   1,1.0000
     5,      6,'1 ', 2.00000E-4, 2.60000E-3,   0.04340,    0.00,    0.00,    1.00,  0.00000,  0.00000,  0.00000,  0.00000,1,2,   0.00,   1,1.0000
     5,      8,'1 ', 8.00000E-4, 1.12000E-2,   0.14760,    0.00,    0.00,    1.00,  0.00000,  0.00000,  0.00000,  0.00000,1,1,   0.00,   1,1.0000
     6,      7,'1 ', 6.00000E-4, 9.20000E-3,   0.11300,    0.00,    0.00,    1.00,  0.00000,  0.00000,  0.00000,  0.00000,1,1,   0.00,   1,1.0000
     6,     11,'1 ', 7.00000E-4, 8.20000E-3,   0.13890,    0.00,    0.00,    1.00,  0.00000,  0.00000,  0.00000,  0.00000,1,1,   0.00,   1,1.0000
     7,      8,'1 ', 4.00000E-4, 4.60000E-3,   0.07800,    0.00,    0.00,    1.00,  0.00000,  0.00000,  0.00000,  0.00000,1,1,   0.00,   1,1.0000
     8,      9,'1 ', 2.30000E-3, 3.63000E-2,   0.38040,    0.00,    0.00,    1.00,  0.00000,  0.00000,  0.00000,  0.00000,1,1,   0.00,   1,1.0000
     9,     39,'1 ', 1.00000E-3, 2.50000E-2,   1.20000,    0.00,    0.00,    1.00,  0.00000,  0.00000,  0.00000,  0.00000,1,1,   0.00,   1,1.0000
    10,     11,'1 ', 4.00000E-4, 4.30000E-3,   0.07290,    0.00,    0.00,    1.00,  0.00000,  0.00000,  0.00000,  0.00000,1,1,   0.00,   1,1.0000
    10,     13,'1 ', 4.00000E-4, 4.30000E-3,   0.07290,    0.00,    0.00,    1.00,  0.00000,  0.00000,  0.00000,  0.00000,1,1,   0.00,   1,1.0000
    13,     14,'1 ', 9.00000E-4, 1.01000E-2,   0.17230,    0.00,    0.00,    1.00,  0.00000,  0.00000,  0.00000,  0.00000,1,1,   0.00,   1,1.0000
    14,     15,'1 ', 1.80000E-3, 2.17000E-2,   0.36600,    0.00,    0.00,    1.00,  0.00000,  0.00000,  0.00000,  0.00000,1,1,   0.00,   1,1.0000
    15,     16,'1 ', 9.00000E-4, 9.40000E-3,   0.17100,    0.00,    0.00,    1.00,  0.00000,  0.00000,  0.00000,  0.00000,1,1,   0.00,   1,1.0000
    16,     17,'1 ', 7.00000E-4, 8.90000E-3,   0.13420,    0.00,    0.00,    1.00,  0.00000,  0.00000,  0.00000,  0.00000,1,1,   0.00,   1,1.0000
    16,     19,'1 ', 1.60000E-3, 1.95000E-2,   0.30400,    0.00,    0.00,    1.00,  0.00000,  0.00000,  0.00000,  0.00000,1,1,   0.00,   1,1.0000
    16,     21,'1 ', 8.00000E-4, 1.35000E-2,   0.25480,    0.00,    0.00,    1.00,  0.00000,  0.00000,  0.00000,  0.00000,1,1,   0.00,   1,1.0000
    16,     24,'1 ', 3.00000E-4, 5.90000E-3,   0.06800,    0.00,    0.00,    1.00,  0.00000,  0.00000,  0.00000,  0.00000,1,1,   0.00,   1,1.0000
    17,     18,'1 ', 7.00000E-4, 8.20000E-3,   0.13190,    0.00,    0.00,    1.00,  0.00000,  0.00000,  0.00000,  0.00000,1,1,   0.00,   1,1.0000
    17,     27,'1 ', 1.30000E-3, 1.73000E-2,   0.32160,    0.00,    0.00,    1.00,  0.00000,  0.00000,  0.00000,  0.00000,1,1,   0.00,   1,1.0000
    21,     22,'1 ', 8.00000E-4, 1.40000E-2,   0.25650,    0.00,    0.00,    1.00,  0.00000,  0.00000,  0.00000,  0.00000,1,1,   0.00,   1,1.0000
    22,     23,'1 ', 6.00000E-4, 9.60000E-3,   0.18460,    0.00,    0.00,    1.00,  0.00000,  0.00000,  0.00000,  0.00000,1,1,   0.00,   1,1.0000
    23,     24,'1 ', 2.20000E-3, 3.50000E-2,   0.36100,    0.00,    0.00,    1.00,  0.00000,  0.00000,  0.00000,  0.00000,1,1,   0.00,   1,1.0000
    25,     26,'1 ', 3.20000E-3, 3.23000E-2,   0.51300,    0.00,    0.00,    1.00,  0.00000,  0.00000,  0.00000,  0.00000,1,1,   0.00,   1,1.0000
    26,     27,'1 ', 1.40000E-3, 1.47000E-2,   0.23960,    0.00,    0.00,    1.00,  0.00000,  0.00000,  0.00000,  0.00000,1,1,   0.00,   1,1.0000
    26,     28,'1 ', 4.30000E-3, 4.74000E-2,   0.78020,    0.00,    0.00,    1.00,  0.00000,  0.00000,  0.00000,  0.00000,1,1,   0.00,   1,1.0000
    26,     29,'1 ', 5.70000E-3, 6.25000E-2,   1.02900,    0.00,    0.00,    1.00,  0.00000,  0.00000,  0.00000,  0.00000,1,1,   0.00,   1,1.0000
    28,     29,'1 ', 1.40000E-3, 1.51000E-2,   0.24900,    0.00,    0.00,    1.00,  0.00000,  0.00000,  0.00000,  0.00000,1,1,   0.00,   1,1.0000
 0 /End of Branch data, Begin Transformer data
     2,    30,     0,'1 ',1,1,1, 0.00000E+0, 0.00000E+0,2,'            ',1,   1,1.0000
 0.00000E+0, 1.81000E-2,   100.00
1.00000,   0.000,   0.000,     0.00,     0.00,     0.00, 0,      0, 1.20000, 0.80000, 1.20000, 0.80000,   8, 0, 0.00000, 0.00000,  0.000
1.00000,   0.000
     6,    31,     0,'1 ',1,1,1, 0.00000E+0, 0.00000E+0,2,'            ',1,   1,1.0000
 0.00000E+0, 2.50000E-2,   100.00
1.00000,   0.000,   0.000,     0.00,     0.00,     0.00, 0,      0, 1.20000, 0.80000, 1.17000, 0.98000,   8, 0, 0.00000, 0.00000,  0.000
1.00000,   0.000
    10,    32,     0,'1 ',1,1,1, 0.00000E+0, 0.00000E+0,2,'            ',1,   1,1.0000
 0.00000E+0, 2.00000E-2,   100.00
1.00000,   0.000,   0.000,     0.00,     0.00,     0.00, 0,      0, 1.20000, 0.80000, 1.20000, 0.80000,   8, 0, 0.00000, 0.00000,  0.000
1.00000,   0.000
    11,    12,    13,'1 ',1,1,1, 1.00000E-3,-2.00000E-2,2,'            ',1,   1,1.0000
 1.06667E-3, 2.90000E-2,   100.00, 1.06667E-3, 2.90000E-2,   100.00, 1.06667E-3, 2.90000E-2,   100.00,0.82628, -21.8525
1.05000,   0.000,  30.000,     0.00,     0.00,     0.00, 0,      0, 1.20000, 0.80000, 1.20000, 0.80000,   8, 0, 0.00000, 0.00000,  0.000
1.00000,   0.000,   0.000,     0.00,     0.00,     0.00, 0,      0, 1.10000, 0.90000, 1.10000, 0.90000,   8, 0, 0.00000, 0.00000,  0.000
1.00000,   0.000,   0.000,     0.00,     0.00,     0.00, 0,      0, 1.10000, 0.90000, 1.10000, 0.90000,   8, 0, 0.00000, 0.00000,  0.000
    19,    20,     0,'1 ',1,1,1, 0.00000E+0, 0.00000E+0,2,'            ',1,   1,1.0000
 7.00000E-4, 1.38000E-2,   100.00
1.00000,   0.000,   0.000,     0.00,     0.00,     0.00, 0,      0, 1.20000, 0.80000, 1.20000, 0.80000,   8, 0, 0.00000, 0.00000,  0.000
1.00000,   0.000
    19,    33,     0,'1 ',1,1,1, 1.00000E-3,-2.00000E-2,2,'            ',1,   1,1.0000
 7.00000E-4, 1.42000E-2,   100.00
1.05000,   0.000,  30.000,     0.00,     0.00,     0.00, 0,      0, 1.20000, 0.80000, 1.20000, 0.80000,   8, 0, 0.00000, 0.00000,  0.000
1.00000,   0.000
    20,    34,     0,'1 ',1,1,1, 0.00000E+0, 0.00000E+0,2,'            ',1,   1,1.0000
 9.00000E-4, 1.80000E-2,   100.00
1.00000,   0.000,   0.000,     0.00,     0.00,     0.00, 0,      0, 1.20000, 0.80000, 1.20000, 0.80000,   8, 0, 0.00000, 0.00000,  0.000
1.00000,   0.000
    22,    35,     0,'1 ',1,1,1, 0.00000E+0, 0.00000E+0,2,'            ',1,   1,1.0000
 0.00000E+0, 1.43000E-2,   100.00
1.00000,   0.000,   0.000,     0.00,     0.00,     0.00, 0,      0, 1.20000, 0.80000, 1.20000, 0.80000,   8, 0, 0.00000, 0.00000,  0.000
1.00000,   0.000
    23,    36,     0,'1 ',1,1,1, 0.00000E+0, 0.00000E+0,2,'            ',1,   1,1.0000
 5.00000E-4, 2.72000E-2,   100.00
1.00000,   0.000,   0.000,     0.00,     0.00,     0.00, 0,      0, 1.20000, 0.80000, 1.20000, 0.80000,   8, 0, 0.00000, 0.00000,  0.000
1.00000,   0.000
    25,    37,     0,'1 ',1,1,1, 0.00000E+0, 0.00000E+0,2,'            ',1,   1,1.0000
 6.00000E-4, 2.32000E-2,   100.00
1.00000,   0.000,   0.000,     0.00,     0.00,     0.00, 0,      0, 1.20000, 0.80000, 1.20000, 0.80000,   8, 0, 0.00000, 0.00000,  0.000
1.00000,   0.000
    29,    38,     0,'1 ',1,1,1, 0.00000E+0, 0.00000E+0,2,'            ',1,   1,1.0000
 8.00000E-4, 1.56000E-2,   100.00
1.00000,   0.000,   0.000,     0.00,     0.00,     0.00, 0,      0, 1.20000, 0.80000, 1.20000, 0.80000,   8, 0, 0.00000, 0.00000,  0.000
1.00000,   0.000
 0 /End of Transformer data, Begin Area interchange data
 0 /End of Area interchange data, Begin Two-terminal dc line data
 0 /End of Two-terminal dc line data, Begin VSC dc line data
 0 /End of VSC dc line data, Begin Impedance correction table data
 0 /End of Impedance correction table data, Begin Multi-terminal dc line data
 0 /End of Multi-terminal dc line data, Begin Multi-section line data
 0 /End of Multi-section line data, Begin Zone data
 0 /End of Zone data, Begin Inter-area transfer data
 0 /End of Inter-area transfer data, Begin Owner data
 0 /End of Owner data, Begin FACTS device data
 0 /End of FACTS device data, Begin Switched shunt data
 0 /End of Switched shunt data, Begin GNE device data
 0 /End of GNE device data
Q
