0,   100.00,  32, 0, 1, 60.00     / PSS(R)E 32 RAW created by rawd32  TUE, APR 11 2017  13:35
                               100.0

     2,'CORONADO    ', 500.0000,1,  10,  10,   1,0.99361, -20.4627
     3,'CHOLLA      ', 345.0000,1,  10,  10,   1,1.02903, -11.8397
     4,'CORONADO    ',  20.0000,2,  10,  10,   1,1.01148, -13.8583
     5,'CRAIG       ', 345.0000,1,  60,  70,   1,1.01368,  12.3862
     6,'CRAIG       ',  20.0000,2,  60,  70,   1,1.01712,  18.9223
     7,'FOURCORN    ', 500.0000,1,  10,  10,   1,1.12547,  -9.2765
     8,'FOURCORN    ', 345.0000,1,  10,  10,   1,1.04845,  -6.3150
     9,'FCNGN4CC    ',  20.0000,2,  10,  10,   1,1.01935,   0.2150
    10,'FOURCORN    ', 230.0000,1,  10,  10,   1,1.04664,  -6.8184
    11,'HAYDEN      ',  20.0000,2,  10,  10,   1,1.00000,  29.1575
    12,'NAVAJO      ', 500.0000,1,  10,  10,   1,1.15161, -21.6896
    13,'NAVAJO 2    ',  20.0000,2,  10,  10,   1,1.08081, -16.4176
    14,'MOENKOPI    ', 500.0000,1,  10,  10,   1,1.15234, -22.4752
    15,'PALOVRD2    ',  20.0000,2,  10,  10,   1,1.03911, -20.1931
    16,'PALOVRDE    ', 500.0000,1,  10,  10,   1,1.12950, -26.9819
    17,'SAN JUAN    ', 345.0000,1,  10,  10,   1,1.06265,  -5.4569
    18,'SJUAN G4    ',  20.0000,2,  10,  10,   1,1.01000,  -2.5746
    19,'WESTWING    ', 500.0000,1,  10,  10,   1,1.13748, -26.8490
    20,'NAVAJO1     ', 500.0000,1,  10,  10,   1,1.14341, -20.7942
    21,'NAVAJO2     ', 500.0000,1,  10,  10,   1,1.15090, -23.3625
    22,'NAVAJO3     ', 500.0000,1,  10,  10,   1,1.12344, -20.0301
    23,'NAVAJO4     ', 500.0000,1,  10,  10,   1,1.10525, -28.5463
    24,'MOENKOPI    ', 500.0000,1,  10,  10,   1,1.14048, -21.1233
    25,'MOENKOP2    ', 500.0000,1,  10,  10,   1,1.12042, -28.2357
    26,'MOENKOP3    ', 500.0000,1,  10,  10,   1,1.14954, -14.8780
    27,'MOENKOP4    ', 500.0000,1,  10,  10,   1,1.02866, -38.5473
    28,'FOURCOR1    ', 500.0000,1,  10,  10,   1,1.11272,  -7.3249
    29,'FOURCOR2    ', 500.0000,1,  10,  10,   1,1.13373, -27.4906
    30,'CANAD G1    ',  20.0000,2,  50,  50,   1,1.05527,  17.9595
    31,'CANADA      ', 500.0000,1,  50,  50,   1,1.09434,  14.5583
    32,'CANALB      ', 500.0000,1,  50,  50,   1,1.03938,  42.6154
    33,'CA230TO     ', 230.0000,1,  50,  50,   1,0.99849,  47.2836
    34,'CA230       ', 230.0000,1,  50,  50,   1,1.00373,  56.2265
    35,'CMAIN GM    ',  20.0000,2,  50,  50,   1,1.02000,  61.1348
    36,'BRIDGER2    ',  22.0000,2,  60,  63,   1,1.06125,   0.0033
    37,'ADELANTO    ', 500.0000,1,  90,  90,   1,1.07297, -38.2434
    38,'ADELAN&1    ', 500.0000,1,  90,  90,   1,1.09333, -42.2239
    39,'CASTAIC     ', 230.0000,1,  26,  26,   1,1.04123, -43.2568
    40,'CASTAI4G    ',  20.0000,2,  26,  26,   1,1.02393, -41.9574
    41,'GLENDAL     ', 230.0000,1,  26,  26,   1,1.04269, -46.8323
    42,'HAYNES      ', 230.0000,1,  26,  26,   1,1.04467, -46.5441
    43,'HAYNES3G    ',  20.0000,2,  26,  26,   1,1.00496, -43.2892
    44,'INTERMT     ', 345.0000,1,  90,  90,   1,1.06442,  -6.2385
    45,'INTERM1G    ',  20.0000,2,  90,  90,   1,1.06068,  -1.6895
    46,'OLIVE       ', 230.0000,1,  26,  26,   1,1.04611, -43.5964
    47,'OWENS G     ',  20.0000,2,  26,  26,   1,1.01546, -43.1964
    48,'RINALDI     ', 230.0000,1,  26,  26,   1,1.04566, -43.8025
    49,'RINALDI     ', 500.0000,1,  26,  26,   1,1.08445, -41.4951
    50,'RIVER       ', 230.0000,1,  26,  26,   1,1.03943, -47.7106
    51,'STA B       ', 138.0000,1,  26,  26,   1,1.04793, -47.7599
    52,'STA B1      ', 287.0000,1,  26,  26,   1,1.05183, -46.6077
    53,'STA B2      ', 287.0000,1,  26,  26,   1,1.05183, -46.6077
    54,'STA BLD     ', 230.0000,1,  26,  26,   1,1.04287, -47.9644
    55,'STA E       ', 230.0000,1,  26,  26,   1,1.04048, -45.9799
    56,'STA E       ', 500.0000,1,  26,  26,   1,1.05779, -43.6424
    57,'STA F       ', 230.0000,1,  26,  26,   1,1.04058, -47.7437
    58,'STA G       ', 230.0000,1,  26,  26,   1,1.04059, -47.0667
    59,'STA J       ', 230.0000,1,  26,  26,   1,1.04267, -44.8526
    60,'SYLMARLA    ', 230.0000,1,  90,  90,   1,1.04935, -43.1287
    61,'SYLMAR S    ', 230.0000,1,  24,  24,   1,1.03068, -44.2161
    62,'VALLEY      ', 230.0000,1,  26,  26,   1,1.04229, -44.9714
    63,'VICTORVL    ', 287.0000,1,  26,  26,   1,1.06562, -40.5293
    64,'VICTORVL    ', 500.0000,1,  26,  26,   1,1.07102, -38.5543
    65,'MONTA G1    ',  20.0000,2,  60,  62,   1,1.08000,  43.0313
    66,'MONTANA     ', 500.0000,1,  60,  62,   1,1.13557,  35.8579
    67,'BIG EDDY    ', 115.0000,1,  40,  40,   1,1.04177, -17.5531
    68,'BIG EDDY    ', 230.0000,1,  40,  40,   1,1.03973, -15.0684
    69,'BIG EDDY    ', 500.0000,1,  40,  40,   1,1.08364, -13.7848
    70,'DALLES21    ',  20.0000,2,  40,  40,   1,1.03000,  -8.1050
    71,'CELILO      ', 230.0000,1,  90,  90,   1,1.03577, -15.6017
    72,'CELILOCA    ', 500.0000,1,  40,  40,   1,1.08226, -13.8910
    73,'COLSTRP     ', 500.0000,1,  60,  62,   1,1.10765,   4.0673
    74,'COULEE      ', 500.0000,1,  40,  41,   1,1.11555,  -3.2945
    75,'GARRISON    ', 500.0000,1,  60,  62,   1,1.09515, -17.1709
    76,'JOHN DAY    ', 500.0000,1,  40,  40,   1,1.11457, -11.7415
    77,'JOHN DAY    ',  20.0000,3,  40,  40,   1,1.04512,   0.0000
    78,'HANFORD     ', 500.0000,1,  40,  41,   1,1.14030,  -3.3624
    79,'NORTH G3    ',  20.0000,2,  40,  42,   1,1.06470,  19.3246
    80,'NORTH       ', 500.0000,1,  40,  42,   1,1.11464,   6.6643
    81,'BURNS       ', 500.0000,1,  40,  40,   1,1.11137, -19.8316
    82,'GRIZZLY     ', 500.0000,1,  40,  40,   1,1.12109, -17.5529
    83,'MALIN       ', 500.0000,1,  40,  40,   1,1.12407, -23.3430
    84,'MIDPOINT    ', 500.0000,1,  61,  61,   1,1.12132,  -6.8976
    85,'MIDPOINT    ', 345.0000,1,  61,  61,   1,1.05299,  -3.6312
    86,'SUMMER L    ', 500.0000,1,  40,  40,   1,1.11895, -18.6567
    87,'GRIZZLY1    ', 500.0000,1,  40,  40,   1,1.12950, -19.0966
    88,'GRIZZLY2    ', 500.0000,1,  40,  40,   1,1.11791, -16.4942
    89,'MALIN1      ', 500.0000,1,  40,  40,   1,1.10339, -14.8947
    90,'MALIN2      ', 500.0000,1,  40,  40,   1,1.12464, -20.0972
    91,'GRIZZLY3    ', 500.0000,1,  40,  40,   1,1.14661, -21.8684
    92,'GRIZZLY4    ', 500.0000,1,  40,  40,   1,1.12366, -17.6608
    93,'GRIZZLY5    ', 500.0000,1,  40,  40,   1,1.13655, -22.4976
    94,'GRIZZLY6    ', 500.0000,1,  40,  40,   1,1.12813, -18.2885
    95,'GRIZZLY7    ', 500.0000,1,  40,  40,   1,1.14647, -22.1045
    96,'GRIZZLY8    ', 500.0000,1,  40,  40,   1,1.12341, -17.6621
    97,'GRIZZLY9    ', 500.0000,1,  40,  40,   1,1.13621, -22.7671
    98,'GRIZZLYA    ', 500.0000,1,  40,  40,   1,1.12758, -18.3223
    99,'BURNS1      ', 500.0000,1,  40,  40,   1,1.01905,   5.0902
   100,'CORTINA     ', 230.0000,1,  39,  39,   1,1.03177, -32.2553
   101,'COTWDPGE    ', 230.0000,1,  39,  39,   1,1.12739, -29.0947
   102,'DIABLO      ', 500.0000,1,  38,  38,   1,1.09283, -42.3514
   103,'DIABLO1     ',  20.0000,2,  38,  38,   1,1.05077, -38.9351
   104,'GATES       ', 500.0000,1,  38,  38,   1,1.07607, -43.8011
   105,'GLENN       ', 230.0000,1,  39,  39,   1,1.02175, -31.8011
   106,'LOGAN CR    ', 230.0000,1,  39,  39,   1,1.11621, -32.7431
   107,'LOSBANOS    ', 500.0000,1,  39,  39,   1,1.06808, -45.5652
   108,'MIDWAY      ', 500.0000,1,  38,  38,   1,1.07043, -44.6437
   109,'MIDWAY      ', 230.0000,1,  38,  38,   1,1.13261, -47.4999
   110,'MOSSLAND    ', 500.0000,1,  39,  39,   1,1.06526, -45.8207
   111,'OLINDA      ', 500.0000,1,  80,  80,   1,1.10947, -30.3144
   112,'ROUND MT    ',  20.0000,2,  39,  39,   1,1.07075, -15.3223
   113,'ROUND MT    ', 230.0000,1,  39,  39,   1,1.15677, -24.6268
   114,'ROUND MT    ', 500.0000,1,  39,  39,   1,1.08067, -27.6154
   115,'TABLE MT    ', 500.0000,1,  39,  39,   1,1.06166, -29.5754
   116,'TEVATR      ',  20.0000,2,  39,  39,   1,1.01200, -33.0313
   117,'TEVATR      ', 200.0000,1,  39,  39,   1,1.08072, -37.3054
   118,'TEVATR2     ',  20.0000,2,  39,  39,   1,1.01200, -28.1711
   119,'TEVATR      ', 500.0000,1,  39,  39,   1,0.99117, -36.3428
   120,'OLINDA1     ', 500.0000,1,  80,  80,   1,1.12426, -24.5438
   121,'OLINDA2     ', 500.0000,1,  80,  80,   1,1.07766, -36.0746
   122,'OLINDA3     ', 500.0000,1,  80,  80,   1,1.10132, -30.0582
   123,'OLINDA4     ', 500.0000,1,  80,  80,   1,1.03251, -43.2500
   124,'ROUND1      ', 500.0000,1,  39,  39,   1,1.08706, -24.7149
   125,'ROUND2      ', 500.0000,1,  39,  39,   1,1.04974, -31.5999
   126,'ROUND3      ', 500.0000,1,  39,  39,   1,1.08706, -24.7149
   127,'ROUND4      ', 500.0000,1,  39,  39,   1,1.04974, -31.5999
   128,'TABLE1      ', 500.0000,1,  39,  39,   1,1.07966, -23.3491
   129,'TABLE2      ', 500.0000,1,  39,  39,   1,1.00804, -43.3706
   130,'TABLE3      ', 500.0000,1,  39,  39,   1,1.09103, -25.0383
   131,'TABLE4      ', 500.0000,1,  39,  39,   1,0.99710, -38.9646
   132,'TEVATR1     ', 500.0000,1,  39,  39,   1,1.01443, -34.5192
   133,'TEVATR2     ', 500.0000,1,  39,  39,   1,1.07257, -47.4371
   134,'TEVATR3     ', 500.0000,1,  39,  39,   1,1.10181, -32.7113
   135,'GATES1      ', 500.0000,1,  38,  38,   1,1.04998, -46.1585
   136,'DEVERS      ', 500.0000,1,  24,  24,   1,1.08550, -39.4213
   137,'EAGLROCK    ', 230.0000,1,  24,  24,   1,1.01363, -48.6591
   138,'ELDORADO    ',  20.0000,2,  24,  29,   1,1.02000, -22.7138
   139,'ELDORADO    ', 500.0000,1,  24,  29,   1,1.07993, -29.6450
   140,'LITEHIPE    ',  20.0000,2,  24,  24,   1,1.00900, -45.3693
   141,'LITEHIPE    ', 230.0000,1,  24,  24,   1,1.00194, -51.6479
   142,'LUGO        ', 500.0000,1,  24,  24,   1,1.05985, -42.0656
   143,'MESA CAL    ', 230.0000,1,  24,  24,   1,1.00314, -50.9532
   144,'MIRALOMA    ',  20.0000,2,  24,  24,   1,1.00900, -41.1228
   145,'MIRALOMA    ', 500.0000,1,  24,  24,   1,1.03185, -45.5715
   146,'MIRALOMA    ', 230.0000,1,  24,  24,   1,1.02962, -46.0189
   147,'MOHAVE      ', 500.0000,1,  24,  29,   1,1.08169, -25.8949
   148,'MOHAV1CC    ',  22.0000,2,  24,  24,   1,1.05000, -17.6650
   149,'PARDEE      ',  20.0000,2,  24,  24,   1,1.01000, -35.5850
   150,'PARDEE      ', 230.0000,1,  24,  24,   1,1.01244, -47.5894
   151,'SERRANO     ', 500.0000,1,  25,  25,   1,1.04459, -45.9264
   152,'VALLEY      ', 500.0000,1,  24,  24,   1,1.06411, -43.5119
   153,'VINCENT     ', 500.0000,1,  24,  24,   1,1.06986, -44.9344
   154,'VINCENT     ', 230.0000,1,  24,  24,   1,1.00186, -47.5753
   155,'CAMP WIL    ', 345.0000,1,  60,  65,   1,1.06619,  -3.9962
   156,'BENLOMND    ', 345.0000,1,  60,  65,   1,1.08193,  -4.4561
   157,'BENLOMND    ', 230.0000,1,  60,  65,   1,1.09107,  -4.9852
   158,'EMERY       ', 345.0000,1,  60,  65,   1,1.03370,   1.4456
   159,'EMERY       ',  20.0000,2,  60,  65,   1,1.02000,   6.3656
   160,'MONA        ', 345.0000,1,  60,  65,   1,1.06764,  -3.9310
   161,'NAUGHTON    ', 230.0000,1,  60,  63,   1,1.11056,  -1.0229
   162,'NAUGHT      ',  20.0000,2,  60,  63,   1,1.06159,   1.4576
   163,'PINTO PS    ', 345.0000,1,  60,  65,   1,1.13174,  -5.0146
   164,'PINTO       ', 345.0000,1,  60,  65,   1,1.15979,  -4.2944
   165,'SPAN FRK    ', 345.0000,1,  60,  65,   1,1.05148,  -3.2443
   166,'SIGURD      ', 345.0000,1,  60,  65,   1,1.05706,  -3.1922
   167,'TERMINAL    ', 345.0000,1,  60,  65,   1,1.06561,  -4.0626
   168,'MALIN3      ', 500.0000,1,  40,  40,   1,1.14854, -20.0222
   169,'MALIN4      ', 500.0000,1,  40,  40,   1,1.05292, -31.3455
   170,'MALIN5      ', 500.0000,1,  40,  40,   1,1.15296, -19.3279
   171,'MALIN6      ', 500.0000,1,  40,  40,   1,1.05425, -31.3810
   172,'MALIN7      ', 500.0000,1,  40,  40,   1,1.08195, -18.2700
   173,'MALIN8      ', 500.0000,1,  40,  40,   1,1.08798, -35.3769
   174,'MIDWAY1     ', 500.0000,1,  38,  38,   1,1.06034, -44.3119
   175,'MIDWAY2     ', 500.0000,1,  38,  38,   1,1.06032, -45.2661
   176,'MIDWAY3     ', 500.0000,1,  38,  38,   1,1.06012, -44.3072
   177,'MIDWAY4     ', 500.0000,1,  38,  38,   1,1.06043, -45.2674
   178,'MIDWAY5     ', 500.0000,1,  38,  38,   1,1.05999, -44.2976
   179,'MIDWAY6     ', 500.0000,1,  38,  38,   1,1.06293, -45.2443
   180,'BURNS2      ', 500.0000,1,  40,  40,   1,1.04218,  -8.2786
   181,'ADDBUS1     ',  20.0000,2,  40,  40,   1,1.00000, -17.1710
   182,'ADDBUS2     ',  20.0000,2,  39,  39,   1,1.10850, -36.3379
 0 /End of Bus data, Begin Load data
     2,'BL',1,  10,  10,  1750.000,   -56.000,     0.000,     0.000,     0.000,     0.000,   1,1
     4,'BL',1,  10,  10,   100.000,     0.000,     0.000,     0.000,     0.000,     0.000,   1,1
     5,'BL',1,  60,  70,  2350.000,  -127.000,     0.000,     0.000,     0.000,     0.000,   1,1
     6,'BL',1,  60,  70,   100.000,     0.000,     0.000,     0.000,     0.000,     0.000,   1,1
     8,'BL',1,  10,  10,   239.000,   -56.000,     0.000,     0.000,     0.000,     0.000,   1,1
     9,'BL',1,  10,  10,   100.000,     0.000,     0.000,     0.000,     0.000,     0.000,   1,1
    10,'BL',1,  10,  10,   139.700,    23.800,     0.000,     0.000,     0.000,     0.000,   1,1
    11,'BL',1,  10,  10,   100.000,     0.000,     0.000,     0.000,     0.000,     0.000,   1,1
    12,'BL',1,  10,  10,    90.000,    70.000,     0.000,     0.000,     0.000,     0.000,   1,1
    13,'BL',1,  10,  10,   100.000,     0.000,     0.000,     0.000,     0.000,     0.000,   1,1
    15,'BL',1,  10,  10,   100.000,     0.000,     0.000,     0.000,     0.000,     0.000,   1,1
    16,'BL',1,  10,  10,   793.400,   207.000,     0.000,     0.000,     0.000,     0.000,   1,1
    17,'BL',1,  10,  10,   840.000,     5.000,     0.000,     0.000,     0.000,     0.000,   1,1
    18,'BL',1,  10,  10,   100.000,     0.000,     0.000,     0.000,     0.000,     0.000,   1,1
    19,'BL',1,  10,  10,   617.000,   -69.000,     0.000,     0.000,     0.000,     0.000,   1,1
    30,'BL',1,  50,  50,   100.000,     0.000,     0.000,     0.000,     0.000,     0.000,   1,1
    31,'BL',1,  50,  50,  4400.000,  1000.000,     0.000,     0.000,     0.000,     0.000,   1,1
    34,'BL',1,  50,  50,  3600.000,   700.000,     0.000,     0.000,     0.000,     0.000,   1,1
    35,'BL',1,  50,  50,   100.000,     0.000,     0.000,     0.000,     0.000,     0.000,   1,1
    36,'BL',1,  60,  63,   100.000,     0.000,     0.000,     0.000,     0.000,     0.000,   1,1
    37,'BL',1,  90,  90, -1862.000,   971.000,     0.000,     0.000,     0.000,     0.000,   1,1
    40,'BL',1,  26,  26,   100.000,     0.000,     0.000,     0.000,     0.000,     0.000,   1,1
    41,'BL',1,  26,  26,   135.000,    27.000,     0.000,     0.000,     0.000,     0.000,   1,1
    43,'BL',1,  26,  26,   100.000,     0.000,     0.000,     0.000,     0.000,     0.000,   1,1
    44,'BL',1,  90,  90,  2053.000,   907.100,     0.000,     0.000,     0.000,     0.000,   1,1
    45,'BL',1,  90,  90,   100.000,     0.000,     0.000,     0.000,     0.000,     0.000,   1,1
    46,'BL',1,  26,  26,   -72.800,   -17.000,     0.000,     0.000,     0.000,     0.000,   1,1
    47,'BL',1,  26,  26,   100.000,     0.000,     0.000,     0.000,     0.000,     0.000,   1,1
    48,'BL',1,  26,  26,   121.000,    25.000,     0.000,     0.000,     0.000,     0.000,   1,1
    50,'BL',1,  26,  26,   320.000,    65.000,     0.000,     0.000,     0.000,     0.000,   1,1
    51,'BL',1,  26,  26,   237.200,   -63.200,     0.000,     0.000,     0.000,     0.000,   1,1
    54,'BL',1,  26,  26,   138.000,    28.000,     0.000,     0.000,     0.000,     0.000,   1,1
    55,'BL',1,  26,  26,   807.800,   132.100,     0.000,     0.000,     0.000,     0.000,   1,1
    57,'BL',1,  26,  26,   117.000,    24.000,     0.000,     0.000,     0.000,     0.000,   1,1
    58,'BL',1,  26,  26,   121.000,    25.000,     0.000,     0.000,     0.000,     0.000,   1,1
    59,'BL',1,  26,  26,   887.700,    -6.200,     0.000,     0.000,     0.000,     0.000,   1,1
    60,'BL',1,  90,  90, -2771.000,  1654.000,     0.000,     0.000,     0.000,     0.000,   1,1
    61,'BL',1,  24,  24,   401.000,    80.600,     0.000,     0.000,     0.000,     0.000,   1,1
    62,'BL',1,  26,  26,   205.200,    17.600,     0.000,     0.000,     0.000,     0.000,   1,1
    63,'BL',1,  26,  26,  -129.000,    32.200,     0.000,     0.000,     0.000,     0.000,   1,1
    65,'BL',1,  60,  62,   100.000,     0.000,     0.000,     0.000,     0.000,     0.000,   1,1
    66,'BL',1,  60,  62,  1700.000,   300.000,     0.000,     0.000,     0.000,     0.000,   1,1
    67,'BL',1,  40,  40,   160.000,    31.250,     0.000,     0.000,     0.000,     0.000,   1,1
    68,'BL',1,  40,  40,   -67.500,   160.000,     0.000,     0.000,     0.000,     0.000,   1,1
    69,'BL',1,  40,  40,   -44.200,    22.000,     0.000,     0.000,     0.000,     0.000,   1,1
    70,'BL',1,  40,  40,   100.000,     0.000,     0.000,     0.000,     0.000,     0.000,   1,1
    71,'BL',1,  90,  90,  3137.000,  1681.000,     0.000,     0.000,     0.000,     0.000,   1,1
    73,'BL',1,  60,  62, -1525.000,   -50.000,     0.000,     0.000,     0.000,     0.000,   1,1
    75,'BL',1,  60,  62,  2584.000,   394.000,     0.000,     0.000,     0.000,     0.000,   1,1
    76,'BL',1,  40,  40,  3200.000,  1100.000,     0.000,     0.000,     0.000,     0.000,   1,1
    77,'BL',1,  40,  40,   100.000,     0.000,     0.000,     0.000,     0.000,     0.000,   1,1
    78,'BL',1,  40,  41,  3500.000,   500.000,     0.000,     0.000,     0.000,     0.000,   1,1
    79,'BL',1,  40,  42,   100.000,     0.000,     0.000,     0.000,     0.000,     0.000,   1,1
    80,'BL',1,  40,  42,  5000.000,   400.000,     0.000,     0.000,     0.000,     0.000,   1,1
    82,'BL',1,  40,  40,   -66.600,   -97.000,     0.000,     0.000,     0.000,     0.000,   1,1
    83,'BL',1,  40,  40,  -339.000,  -119.000,     0.000,     0.000,     0.000,     0.000,   1,1
    85,'BL',1,  61,  61,   610.000,  -414.000,     0.000,     0.000,     0.000,     0.000,   1,1
   100,'BL',1,  39,  39,   -43.300,    20.000,     0.000,     0.000,     0.000,     0.000,   1,1
   101,'BL',1,  39,  39,   210.400,   -77.000,     0.000,     0.000,     0.000,     0.000,   1,1
   102,'BL',1,  38,  38,    50.000,    25.000,     0.000,     0.000,     0.000,     0.000,   1,1
   103,'BL',1,  38,  38,   100.000,     0.000,     0.000,     0.000,     0.000,     0.000,   1,1
   104,'BL',1,  38,  38,   305.000,    -7.600,     0.000,     0.000,     0.000,     0.000,   1,1
   105,'BL',1,  39,  39,    27.500,    -0.100,     0.000,     0.000,     0.000,     0.000,   1,1
   106,'BL',1,  39,  39,     8.010,     0.000,     0.000,     0.000,     0.000,     0.000,   1,1
   107,'BL',1,  39,  39,   265.000,    14.000,     0.000,     0.000,     0.000,     0.000,   1,1
   108,'BL',1,  38,  38,    55.600,  -329.000,     0.000,     0.000,     0.000,     0.000,   1,1
   109,'BL',1,  38,  38,   777.600,    32.600,     0.000,     0.000,     0.000,     0.000,   1,1
   110,'BL',1,  39,  39,    40.000,    21.500,     0.000,     0.000,     0.000,     0.000,   1,1
   111,'BL',1,  80,  80,  -189.000,    61.500,     0.000,     0.000,     0.000,     0.000,   1,1
   112,'BL',1,  39,  39,   100.000,     0.000,     0.000,     0.000,     0.000,     0.000,   1,1
   113,'BL',1,  39,  39,   148.000,     0.000,     0.000,     0.000,     0.000,     0.000,   1,1
   115,'BL',1,  39,  39,    -0.700,   118.500,     0.000,     0.000,     0.000,     0.000,   1,1
   116,'BL',1,  39,  39,   100.000,     0.000,     0.000,     0.000,     0.000,     0.000,   1,1
   117,'BL',1,  39,  39,   884.000,    54.800,     0.000,     0.000,     0.000,     0.000,   1,1
   118,'BL',1,  39,  39,   100.000,     0.000,     0.000,     0.000,     0.000,     0.000,   1,1
   119,'BL',1,  39,  39,  5761.000,  3491.000,     0.000,     0.000,     0.000,     0.000,   1,1
   136,'BL',1,  24,  24,   856.000,    19.600,     0.000,     0.000,     0.000,     0.000,   1,1
   137,'BL',1,  24,  24,   175.000,    18.000,     0.000,     0.000,     0.000,     0.000,   1,1
   138,'BL',1,  24,  29,   100.000,     0.000,     0.000,     0.000,     0.000,     0.000,   1,1
   139,'BL',1,  24,  29,   902.300,   -11.400,     0.000,     0.000,     0.000,     0.000,   1,1
   140,'BL',1,  24,  24,   100.000,     0.000,     0.000,     0.000,     0.000,     0.000,   1,1
   141,'BL',1,  24,  24,  3191.000,   630.000,     0.000,     0.000,     0.000,     0.000,   1,1
   142,'BL',1,  24,  24,   204.200,   -28.200,     0.000,     0.000,     0.000,     0.000,   1,1
   143,'BL',1,  24,  24,   377.400,    64.500,     0.000,     0.000,     0.000,     0.000,   1,1
   144,'BL',1,  24,  24,   100.000,     0.000,     0.000,     0.000,     0.000,     0.000,   1,1
   145,'BL',1,  24,  24,  3098.000,  1189.000,     0.000,     0.000,     0.000,     0.000,   1,1
   148,'BL',1,  24,  24,   100.000,     0.000,     0.000,     0.000,     0.000,     0.000,   1,1
   149,'BL',1,  24,  24,   100.000,     0.000,     0.000,     0.000,     0.000,     0.000,   1,1
   150,'BL',1,  24,  24,  3118.000,    78.000,     0.000,     0.000,     0.000,     0.000,   1,1
   151,'BL',1,  25,  25,  1230.000,    72.800,     0.000,     0.000,     0.000,     0.000,   1,1
   152,'BL',1,  24,  24,   406.000,    41.000,     0.000,     0.000,     0.000,     0.000,   1,1
   154,'BL',1,  24,  24,  1066.000,   -10.800,     0.000,     0.000,     0.000,     0.000,   1,1
   155,'BL',1,  60,  65,   457.700,    81.700,     0.000,     0.000,     0.000,     0.000,   1,1
   156,'BL',1,  60,  65,    33.900,    11.900,     0.000,     0.000,     0.000,     0.000,   1,1
   157,'BL',1,  60,  65,   148.000,    -7.900,     0.000,     0.000,     0.000,     0.000,   1,1
   158,'BL',1,  60,  65,   116.100,    38.400,     0.000,     0.000,     0.000,     0.000,   1,1
   159,'BL',1,  60,  65,   100.000,     0.000,     0.000,     0.000,     0.000,     0.000,   1,1
   160,'BL',1,  60,  65,   -62.000,    12.800,     0.000,     0.000,     0.000,     0.000,   1,1
   161,'BL',1,  60,  63,   255.000,   100.000,     0.000,     0.000,     0.000,     0.000,   1,1
   162,'BL',1,  60,  63,   100.000,     0.000,     0.000,     0.000,     0.000,     0.000,   1,1
   164,'BL',1,  60,  65,    31.600,    11.500,     0.000,     0.000,     0.000,     0.000,   1,1
   165,'BL',1,  60,  65,   141.200,    71.400,     0.000,     0.000,     0.000,     0.000,   1,1
   166,'BL',1,  60,  65,   379.000,   -43.000,     0.000,     0.000,     0.000,     0.000,   1,1
   167,'BL',1,  60,  65,   185.000,    78.500,     0.000,     0.000,     0.000,     0.000,   1,1
 0 /End of Load data, Begin Fixed shunt data
     7,'1 ',1,     0.000,  -113.000
     8,'1 ',1,     0.000,  -155.000
    12,'1 ',1,     0.000,  -190.000
    14,'1 ',1,     0.000,  -391.000
    16,'1 ',1,     0.000,  -146.000
    17,'1 ',1,     0.000,   390.000
    19,'1 ',1,     0.000,  -427.000
    26,'1 ',1,     0.000,   100.000
    32,'1 ',1,     0.000,  -600.000
    33,'1 ',1,     0.000,   600.000
    37,'1 ',1,     0.000,   912.000
    41,'1 ',1,     0.000,   100.000
    44,'1 ',1,     0.000,   430.000
    49,'1 ',1,     0.000,   -80.000
    60,'1 ',1,     0.000,  2146.000
    63,'1 ',1,     0.000,  -108.000
    65,'1 ',1,     0.000,  1000.000
    66,'1 ',1,     0.000,  -200.000
    68,'1 ',1,     0.000,   100.000
    70,'1 ',1,     0.000,   500.000
    71,'1 ',1,     0.000,   100.000
    72,'1 ',1,     0.000,   100.000
    73,'1 ',1,     0.000, -1250.000
    74,'1 ',1,     0.000,  -200.000
    75,'1 ',1,     0.000,   850.000
    76,'1 ',1,     0.000,  1200.000
    78,'1 ',1,     0.000,  1500.000
    80,'1 ',1,     0.000,   100.000
    81,'1 ',1,     0.000,  -220.000
    82,'1 ',1,     0.000,  -674.000
    83,'1 ',1,     0.000,   200.000
    84,'1 ',1,     0.000,  -220.000
    85,'1 ',1,     0.000,  -870.000
   100,'1 ',1,     0.000,  -100.000
   104,'1 ',1,     0.000,   -91.000
   105,'1 ',1,     0.000,  -150.000
   108,'1 ',1,     0.000,  -327.000
   109,'1 ',1,     0.000,  -600.000
   111,'1 ',1,     0.000,  -100.000
   112,'1 ',1,     0.000,  -625.000
   113,'1 ',1,     0.000,  -125.000
   114,'1 ',1,     0.000,   -91.000
   115,'1 ',1,     0.000,   -91.000
   116,'1 ',1,     0.000,   200.000
   117,'1 ',1,     0.000,  -232.000
   118,'1 ',1,     0.000,   500.000
   119,'1 ',1,     0.000,  4500.000
   123,'1 ',1,     0.000,  -700.000
   129,'1 ',1,     0.000,  -300.000
   131,'1 ',1,     0.000,  -500.000
   132,'1 ',1,     0.000,  -500.000
   134,'1 ',1,     0.000,  -900.000
   138,'1 ',1,     0.000,   -50.000
   139,'1 ',1,     0.000,  -319.000
   145,'1 ',1,     0.000,   400.000
   147,'1 ',1,     0.000,  -196.000
   154,'1 ',1,     0.000,  -190.000
   155,'1 ',1,     0.000,   -60.000
   158,'1 ',1,     0.000,  -220.000
   164,'1 ',1,     0.000,   200.000
   166,'1 ',1,     0.000,   -50.000
   172,'1 ',1,     0.000,   300.000
   173,'1 ',1,     0.000,   200.000
   180,'1 ',1,     0.000,  -220.000
 0 /End of Fixed shunt data, Begin Generator data
     4,'1 ',   800.000,  -132.081,   300.000,  -300.000,1.01148,     0,  1462.000, 0.00000E+0, 1.95000E-1, 0.00000E+0, 0.00000E+0,1.00000,1,  100.0,  9999.000,     0.000,   1,1.0000
     6,'1 ',   349.000,    27.444,   400.000,  -400.000,1.01712,     0,  1488.000, 0.00000E+0, 1.90000E-1, 0.00000E+0, 0.00000E+0,1.00000,1,  100.0,  9999.000,     0.000,   1,1.0000
     6,'2 ',   699.000,    54.966,   400.000,  -400.000,1.01712,     0,  1488.000, 0.00000E+0, 1.90000E-1, 0.00000E+0, 0.00000E+0,1.00000,1,  100.0,  9999.000,     0.000,   1,1.0000
     9,'1 ',  2160.000,  -385.214,   700.000,  -500.000,1.01935,     0,  2458.000, 0.00000E+0, 2.05000E-1, 0.00000E+0, 0.00000E+0,1.00000,1,  100.0,  9999.000,     0.000,   1,1.0000
    11,'1 ',  2050.000,   196.266,   900.000,  -900.000,1.00000,     0,  3000.000, 0.00000E+0, 1.90000E-1, 0.00000E+0, 0.00000E+0,1.00000,1,  100.0,  9999.000,     0.000,   1,1.0000
    13,'1 ',  1690.000,   308.566,   700.000,  -280.000,1.08081,     0,  3540.000, 0.00000E+0, 1.75000E-1, 0.00000E+0, 0.00000E+0,1.00000,1,  100.0,  9999.000,     0.000,   1,1.0000
    15,'1 ',  2640.000,   496.378,  1300.000,  -900.000,1.03911,     0,  3117.000, 0.00000E+0, 2.85000E-1, 0.00000E+0, 0.00000E+0,1.00000,1,  100.0,  9999.000,     0.000,   1,1.0000
    18,'1 ',   962.000,  -118.863,  1300.000, -1300.000,1.01000,     0,  2054.000, 0.00000E+0, 2.05000E-1, 0.00000E+0, 0.00000E+0,1.00000,1,  100.0,  9999.000,     0.000,   1,1.0000
    30,'1 ',  1483.300,   348.975,  4000.000, -4000.000,1.05527,     0, 10578.000, 0.00000E+0, 1.50000E-1, 0.00000E+0, 0.00000E+0,1.00000,1,  100.0,  9999.000,     0.000,   1,1.0000
    30,'2 ',  2966.700,   697.973,  4000.000, -4000.000,1.05527,     0, 10578.000, 0.00000E+0, 1.50000E-1, 0.00000E+0, 0.00000E+0,1.00000,1,  100.0,  9999.000,     0.000,   1,1.0000
    35,'1 ',  1493.300,   339.108,  5320.000, -3500.000,1.02000,     0,  6698.039, 0.00000E+0, 2.50000E-1, 0.00000E+0, 0.00000E+0,1.00000,1,  100.0,  9999.000,     0.000,   1,1.0000
    35,'2 ',  2986.600,   678.215,  5320.000, -3500.000,1.02000,     0,  6698.039, 0.00000E+0, 2.50000E-1, 0.00000E+0, 0.00000E+0,1.00000,1,  100.0,  9999.000,     0.000,   1,1.0000
    36,'1 ',  1640.000,   239.308,   600.000,  -525.000,1.06125,     0,  2166.000, 0.00000E+0, 2.15000E-1, 0.00000E+0, 0.00000E+0,1.00000,1,  100.0,  9999.000,     0.000,   1,1.0000
    40,'1 ',   200.000,   -75.389,   268.000,  -134.000,1.02393,     0,   770.000, 0.00000E+0, 1.00000E-1, 0.00000E+0, 0.00000E+0,1.00000,1,  100.0,  9999.000,     0.000,   1,1.0000
    43,'1 ',   325.000,    37.622,   300.000,  -220.000,1.00496,     0,   500.000, 0.00000E+0, 1.00000E-1, 0.00000E+0, 0.00000E+0,1.00000,1,  100.0,  9999.000,     0.000,   1,1.0000
    45,'1 ',   593.000,   173.245,   850.000,  -440.000,1.06068,     0,  1982.000, 0.00000E+0, 1.00000E-1, 0.00000E+0, 0.00000E+0,1.00000,1,  100.0,  9999.000,     0.000,   1,1.0000
    45,'2 ',  1187.000,   346.781,   850.000,  -440.000,1.06068,     0,  1982.000, 0.00000E+0, 1.00000E-1, 0.00000E+0, 0.00000E+0,1.00000,1,  100.0,  9999.000,     0.000,   1,1.0000
    47,'1 ',   110.000,    15.109,   100.000,  -100.000,1.01546,     0,   130.000, 0.00000E+0, 1.00000E-1, 0.00000E+0, 0.00000E+0,1.00000,1,  100.0,  9999.000,     0.000,   1,1.0000
    65,'1 ',   970.000,   -55.085,  1500.340, -1000.000,1.08000,     0,  4830.000, 0.00000E+0, 2.30790E-1, 0.00000E+0, 0.00000E+0,1.00000,1,  100.0,  9999.000,     0.000,   1,1.0000
    65,'2 ',  1940.000,  -110.169,  1500.340, -1000.000,1.08000,     0,  4830.000, 0.00000E+0, 2.30790E-1, 0.00000E+0, 0.00000E+0,1.00000,1,  100.0,  9999.000,     0.000,   1,1.0000
    70,'1 ',  1301.000,  -103.527,   692.000,  -711.000,1.03000,     0,  2822.000, 0.00000E+0, 4.78700E-1, 0.00000E+0, 0.00000E+0,1.00000,1,  100.0,  9999.000,     0.000,   1,1.0000
    77,'1 ',  1952.866,   473.763,  2649.000, -1850.000,1.04512,     0, 10522.000, 0.00000E+0, 3.20240E-1, 0.00000E+0, 0.00000E+0,1.00000,1,  100.0,  9999.000,     0.000,   1,1.0000
    77,'2 ',  3905.731,   947.525,  2649.000, -1850.000,1.04512,     0, 10522.000, 0.00000E+0, 3.20240E-1, 0.00000E+0, 0.00000E+0,1.00000,1,  100.0,  9999.000,     0.000,   1,1.0000
    79,'1 ',  4930.000,   947.421,  5780.000, -2000.000,1.06470,     0, 14469.000, 0.00000E+0, 1.61000E-1, 0.00000E+0, 0.00000E+0,1.00000,1,  100.0,  9999.000,     0.000,   1,1.0000
    79,'2 ',  4930.000,   947.421,  5780.000, -2000.000,1.06470,     0,  7000.000, 0.00000E+0, 1.61000E-1, 0.00000E+0, 0.00000E+0,1.00000,1,  100.0,  9999.000,     0.000,   1,1.0000
   103,'1 ',   382.500,   126.837,   330.000,  -310.000,1.05077,     0,  1250.000, 0.00000E+0, 3.11000E-1, 0.00000E+0, 0.00000E+0,1.00000,1,  100.0,  9999.000,     0.000,   1,1.0000
   103,'2',    382.500,   126.837,   330.000,  -310.000,1.05077,     0,  1250.000, 0.00000E+0, 3.11000E-1, 0.00000E+0, 0.00000E+0,1.00000,1,  100.0,  9999.000,     0.000,   1,1.0000
   112,'1 ',   528.500,   423.804,  1500.000, -1000.000,1.07075,     0,  2000.000, 0.00000E+0, 5.14680E-1, 0.00000E+0, 0.00000E+0,1.00000,1,  100.0,  9999.000,     0.000,   1,1.0000