    6 'GENROU' 1     4.0000      0.32000E-01  0.52000      0.63000E-01
          0.8700       1.0       1.8100       1.7300      0.24500    
         0.51000      1.90000E-1     0.14000       1.7850       7.1400    /
      6 'IEE2ST' 1          2            0            0            0
          5.5000       0.0000      0.30000E-01   0.0000       10.000    
          10.000      0.40000      0.40000E-01   0.0000       0.0000    
          0.0000       0.0000      0.50000E-01 -0.50000E-01   0.0000    
          0.0000    /
      6 'ESST4B' 1     0   3.61     3.61        1.0    
          -0.8       0.01       1.0       0.0000       1.0    
         -0.8       0       5.54      0       6.92    
         0.08  0   0    /
      6 'IEEEG1' 1          0           0        3.000      0.10000    
          0.0000      0.20000       1.0000      -1.0000      0.95000    
          0.0000      0.10000       0.0000       0.0000       0.0000    
          0.0000       0.0000       0.0000      0.30000       0.0000    
          8.7200      0.70000       0.0000    /

	
 


      9 'GENROU' 1     8.4000      0.35000E-01  0.46000      0.70000E-01
          3.4200      1.0       1.7600       1.5800      0.28500    
         0.48500     2.05000E-1     0.15500       1.8429       6.4500    /
      9 'IEE2ST' 1          1            0            0            0
          10.000       0.0000       0.0000       0.0000       3.0000    
          3.0000      0.15000      0.50000E-01  0.15000      0.50000E-01
         0.15000      0.50000E-01  0.50000E-01 -0.50000E-01   0.0000    
          0.0000    /
      9 'EXST1'  1    0.20000E-01   99.000      -99.000       0.0000    
         0.20000E-01   50.00      0.20000E-01   9999.0      -9999.0    
          0.0000      0.10000E-01   1.0000    /
      9 'IEEEG1' 1          0           0        10.000      0.10000    
          0.0000      0.20000       1.0000      -1.0000      0.95000    
          0.0000      0.10000       0.0000       0.0000       0.0000    
          0.0000       0.0000       0.0000      0.30000       0.0000    
          8.7200      0.70000       0.0000    /


     11 'GENROU' 1     4.5000      0.40000E-01  0.50000      0.60000E-01
          2.4500       1.0      1.7000       1.6500      0.25000    
         0.50000      1.90000E-1     0.14000       1.7850       7.1400    /
     11 'IEE2ST' 1          2            0            0            0
          0.0000       0.0000      0.25000E-01   0.0000      0.16000E-01
         0.16000E-01  0.26000      0.26000E-01  0.26000      0.26000E-01
          0.0000       0.0000      0.10000     -0.10000       0.0000    
          0.0000    /
     11 'IEEEX1' 1    0.20000E-01   50.00      0.50000E-01  0.20000E-01
          0.0000       3.0000      -3.0000       0.0000      0.51200    
         0.70000E-01   1.3000       0.0000       5.3100      0.50000    
          3.9825       1.0490    /
     11 'IEEEG1' 1          0           0        10.000      0.10000    
          0.0000      0.20000       1.0000      -1.0000      0.95000    
          0.0000      0.10000       0.0000       0.0000       0.0000    
          0.0000       0.0000       0.0000      0.30000       0.0000    
          8.7200      0.70000       0.0000    /


     13 'GENROU' 1     4.2000      0.32000E-01  0.60000      0.66000E-01
          3.5900       1.0       1.7600       1.6800      0.22000    
         0.40000      1.75000E-1     0.13000       1.9225       7.6900    /
     13 'IEE2ST' 1          1            0            0            0
          10.000       0.0000       0.0000       0.0000       3.0000    
          3.0000      0.15000      0.50000E-01  0.15000      0.50000E-01
         0.15000      0.50000E-01  0.50000E-01 -0.50000E-01   0.0000    
          0.0000    /
     13 'EXST1'  1    0.20000E-01   99.000      -99.000       1.0000    
          10.000       75.00      0.20000E-01   9999.0      -9999.0    
          0.0000      0.10000E-01   1.0000    /
     13 'IEEEG1' 1          0           0        10.000      0.10000    
          0.0000      0.20000       1.0000      -1.0000      0.95000    
          0.0000      0.10000       0.0000       0.0000       0.0000    
          0.0000       0.0000       0.0000      0.30000       0.0000    
          8.7200      0.70000       0.0000    /


     15 'GENROU' 1     8.2000      0.33000E-01  0.48000      0.55000E-01
          3.8300       1.0       1.9800       1.8500      0.37500    
         0.56700     2.85000E-1     0.22500       1.4800       4.4400    /
     15 'IEE2ST' 1          1            0            0            0
          10.000       0.0000       0.0000       0.0000       3.0000    
          3.0000      0.15000      0.50000E-01  0.15000      0.50000E-01
         0.15000      0.50000E-01  0.50000E-01 -0.50000E-01   0.0000    
          0.0000    /
     15 'ESST4B' 1    0   3.61     3.61        1.0    
          -0.8       0.01       1.0       0.0000       1.0    
         -0.8       0       5.54      0       6.92    
         0.08  0   0    /
     15 'IEEEG1' 1          0           0        10.000      0.10000    
          0.0000      0.20000       1.0000      -1.0000      0.95000   
          0.0000      0.10000       0.0000       0.0000       0.0000    
          0.0000       0.0000       0.0000      0.30000       0.0000    
          8.7200      0.70000       0.0000    /


     


     30 'GENROU' 1     8.0000      0.50000E-01  0.20000      0.80000E-01
          1.44       1.0     0.90000      0.60000      0.25000    
         0.60000      1.50000E-1     0.90000E-01   2.2000       11.000    /
     30 'IEE2ST' 1          3            0            0            0
         -3.5000       0.0000       0.0000       0.0000       1.0000    
          1.0000       0.0000       3.0000      0.80000E-01  0.27000E-01
         0.80000E-01  0.27000E-01  0.10000     -0.10000       0.0000    
          0.0000    /
     30 'EXST1'  1    0.20000E-01   99.000      -99.000       0.0000    
         0.20000E-01   72.5      0.20000E-01   9999.0      -9999.0    
          0.0000      0.10000E-01   1.5000    /
     30 'IEEEG1' 1          0           0        3.000      0.10000    
          0.0000      0.20000       1.0000      -1.0000      0.95000    
          0.0000      0.10000       0.0000       0.0000       0.0000    
          0.0000       0.0000       0.0000      0.30000       0.0000    
          8.7200      0.70000       0.0000    /


     35 'GENROU' 1     4.6000      0.40000E-01  0.37000      0.10000    
          0.98      1.0      1.8250       1.7800      0.29100    
         0.44000      2.50000E-1     0.23900       1.3933       4.1800    /
     35 'IEE2ST' 1          1            0            0            0
          10.000       0.0000      0.10000       0.0000       1.0000    
          1.0000      0.20000      0.10000E-01   0.0000       0.0000    
          0.0000       0.0000      0.50000E-01 -0.50000E-01   0.0000    
          0.0000    /
     35 'EXST1'  1    0.20000E-01   99.000      -99.000       0.0000    
         0.20000E-01   50.00      0.80000E-01   9999.0      -9999.0    
          0.0000      0.15000E-01   1.0000    /
     35 'IEEEG1' 1          0           0        3.000      0.10000    
          0.0000      0.20000       1.0000      -1.0000      0.95000    
          0.0000      0.10000       0.0000       0.0000       0.0000    
          0.0000       0.0000       0.0000      0.30000       0.0000    
          8.7200      0.70000       0.0000    /


     36 'GENROU' 1     4.1000      0.33000E-01  0.56000      0.62000E-01
          2.3200       1.0        2.0700       1.9900      0.28000    
         0.49000      2.15000E-1     0.15500       1.8429       6.4500    /
     36 'IEE2ST' 1          1            0            0            0
          10.000       0.0000       0.0000       0.0000       3.0000    
          3.0000      0.15000      0.50000E-01  0.15000      0.50000E-01
         0.15000      0.50000E-01  0.50000E-01 -0.50000E-01   0.0000    
          0.0000    /
     36 'EXST1'  1    0.20000E-01   99.000      -99.000       0.0000    
         0.20000E-01   50.00      0.36000       9999.0      -9999.0    
          0.0000      0.30000E-01   1.0000    /
     36 'IEEEG1' 1          0           0        10.000      0.10000    
          0.0000      0.20000       1.0000      -1.0000      0.95000    
          0.0000      0.10000       0.0000       0.0000       0.0000    
          0.0000       0.0000       0.0000      0.30000       0.0000    
          8.7200      0.70000       0.0000    /


     

     

     45 'GENROU' 1     4.7000      0.31000E-01  0.67000      0.61000E-01
          0.96       1.0        1.9900       1.9000      0.24500    
         0.42000      1.0000E-1     0.15000       1.9057       6.6700    /
     45 'IEE2ST' 1          1            0            0            0
          3.0000       0.0000       0.0000       0.0000       10.000    
          10.000      0.30000      0.30000E-01  0.30000      0.30000E-01
          0.0000       0.0000      0.10000     -0.10000       0.0000    
          0.0000    /
     45 'ESST4B' 1     0   3.61     3.61        1.1    
          -0.8       0.01       1.0       0.0000       1.1    
         -0.8       0       5.54      0       6.92    
         0.08  0   0    /
     //45 'ESST4B' 1    0.20000E-01   50.0000     0.0000       99.000    
     //    -99.0000       0.0000      7.2000       0.0000       99.000    
     //    0.0000       1.0000       4.3500      0.24300       8.4000    
     //    0.10000E-01  0.50000E-02   0.349065  /
     //45 'ESST3A' 1    0.20000E-01  0.20000     -0.20000       7.2000    
     //     1.0000       4.0000       50.00       0.0000       99.000    
     //    -99.000       1.0000       4.3500      0.24300       8.4000    
     //    0.10000E-01  0.50000E-02   6.3600       0.349065      0.60000    
      //    99.000       0.0000    /
     45 'IEEEG1' 1          0           0        3.000      0.10000    
          0.0000      0.20000       1.0000      -1.0000      0.95000    
          0.0000      0.10000       0.0000       0.0000       0.0000    
          0.0000       0.0000       0.0000      0.30000       0.0000    
          8.7200      0.70000       0.0000    /

    

     65 'GENROU' 1     4.7800      0.41000E-01  0.53000      0.67000E-01
         1.12       1.0       1.602593       1.58184      0.28525   
         0.451216      2.307941E-1     0.165964       1.9475       7.7900    /
     65 'IEE2ST' 1          1            0            0            0
          3.0000       0.0000      0.30000E-01   0.0000       20.000    
          20.000       6.7200      0.67200       0.0000       0.0000    
          0.0000       0.0000      0.10000     -0.10000       0.0000    
          0.0000    /
     65 'EXST1'  1    0.20000E-01   99.000      -99.000       0.0000    
         0.20000E-01   47.50      0.13000       9999.0      -9999.0    
          0.0000      0.20000E-01   1.0000    /
     65 'IEEEG1' 1          0           0        3.000      0.10000    
          0.0000      0.20000       1.0000      -1.0000      0.95000    
          0.0000      0.50000       0.0000       0.0000       0.0000    
          0.0000       0.0000       0.0000      0.30000       0.0000    
          8.7200      0.70000       0.0000    /


     70 'GENROU' 1     4.0000      0.20000E-01  0.20000      0.50000E-01
          3.0000      1.0      1.4846      0.83403      0.61720    
         0.83403     4.787000E-1     0.40033       1.3900       4.1700    /
     70 'IEE2ST' 1          1            0            0            0
          10.000       0.0000       0.0000       0.0000       3.0000    
          3.0000      0.15000      0.50000E-01  0.15000      0.50000E-01
         0.15000      0.50000E-01  0.50000E-01 -0.50000E-01   0.0000    
          0.0000    /
     70 'EXST1'  1    0.20000E-01   99.000      -99.000       0.0000    
         0.20000E-01   50.00      0.16000       9999.0      -9999.0    
          0.0000      0.26000E-01   1.0000    /
     70 'IEEEG1' 1          0           0        10.000      0.10000    
          0.0000      0.20000       1.0000      -1.0000      0.95000    
          0.0000      0.10000       0.3000      0.0000       0.0000    
          0.0000       0.0000       0.0000      0.30000       0.0000    
          8.7200      0.70000       0.0000    /



     77 'GENROU' 1     8.0000      0.30000E-01  0.20000      0.60000E-01
          1.22      1.0     1.200885      0.84062      0.460985    
         0.84062      3.202361E-1     0.309906       1.3900       4.1700    /
     77 'IEE2ST' 1          3            0            0            0
        -0.40000E-01   0.0000       0.0000       0.0000       29.500    
          29.500       1.5000      0.15000       1.5000      0.15000    
          0.0000       0.0000      0.90000E-01 -0.90000E-01   0.0000    
          0.0000    /
     77 'IEEEX1' 1    0.20000E-01   20.000      0.60000E-01  0.20000E-01
          0.0000       3.0000      -3.0000       0.0000      0.13000    
         0.50000E-01   1.3000       0.0000       4.5000      0.30000    
          3.3750       1.0000    /
     77 'IEEEG1' 1          0           0        3.000      0.10000    
          0.0000      0.20000       1.0000      -1.0000      1.05000    
          0.0000      0.80000       0.0000      0.0000       0.0000    
          0.0000       0.0000       0.0000      0.30000       0.0000    
          8.7200      0.70000       0.0000    /



     79 'GENROU' 1     7.2000      0.43000E-01  0.20000      0.79000E-01
          1.73       1.0    0.63800      0.42400      0.22800    
         0.42400      1.61000E-1     0.12700       1.9675       7.8700    /
     79 'IEE2ST' 1          3            0            0            0
        -0.60000E-01   0.0000       0.0000       0.0000       29.500    
          29.500       1.5000      0.15000       1.5000      0.15000    
          0.0000       0.0000      0.90000E-01 -0.90000E-01   0.0000    
          0.0000    /
     79 'IEEEX1' 1    0.20000E-01   20.000      0.10000      0.20000E-01
          0.0000       3.0000      -3.0000       0.0000      0.57000    
         0.50000E-01   1.2000       0.0000       4.5000      0.30000    
          3.3750       1.0000    /
     79 'IEEEG1' 1          0           0        5.000      0.10000    
          0.0000      0.20000       1.0000      -1.0000      0.95000    
          0.0000      0.10000       0.0000       0.0000       0.0000    
          0.0000       0.0000       0.0000      0.30000       0.0000    
          8.7200      0.70000       0.0000    /

    
    112 'GENROU' 1     4.0000      0.51000E-01  0.20000      0.33000E-01
          2.195       1.0    2.05479      1.31115      0.62622    
         1.31115      5.146771E-1     0.273973       1.7850       7.1400    /
    112 'IEEEST' 1          3            0
	      0.0000           0.00000    0.0000      0.00000       0.0000
		  0.0000           0.00000    0.0000      0.00000       0.7500
		  1.0000           4.20000    -2.00      0.10000       -0.1000
		  0.0000           0.00000/
    112 'IEEEX1' 1    0.20000E-01   40.5      0.60000E-01  0.20000E-01
          0.0000       2.0000      -2.0000       0.0000      0.50000    
         0.50000E-01   1.0000       0.0000       3.5000      0.54000    
          2.6250       1.0000    /
    112 'IEEEG1' 1          0           0        10.000      0.10000    
          0.0000      0.20000       1.0000      -1.0000      0.95000    
          0.0000      0.10000       0.1000      0.0000       0.0000    
          0.0000       0.0000       0.0000      0.30000       0.0000    
          8.7200      0.70000       0.0000    /
   

    118 'GENROU' 1     4.5000      0.40000E-01  0.50000      0.60000E-01
         1.273       1.0        1.7000       1.6500      0.25000    
         0.50000     1.90000E-1     0.14000       1.7850       7.1400    /
    118 'IEEEST' 1          3            0
	      0.0000           0.00000    0.0000      0.00000       0.0000
		  0.0000           0.00000    0.0000      0.00000       0.7500
		  1.0000           4.20000    -2.000      0.10000       -0.1000
		  0.0000           0.00000/
    118 'IEEEX1' 1    0.20000E-01  40.000      0.50000E-01  0.20000E-01
          0.0000       3.0000      -3.0000       0.0000      0.51200    
         0.70000E-01   1.3000       0.0000       5.3100      0.50000    
          3.9825       1.0490    /
    118 'IEEEG1' 1          0           0       7.000      0.10000    
          0.0000      0.20000       1.0000      -1.0000      0.95000    
          0.0000      0.10000       0.0000       0.0000       0.0000    
          0.0000       0.0000       0.0000      0.30000       0.0000    
          8.7200      0.70000       0.0000    /


    138 'GENROU' 1     7.8000      0.60000E-01  0.20000      0.11000    
          6.0700      1.0      0.75000      0.53000      0.32000    
         0.53000      3.00000E-1     0.21500       1.5500       4.6500    /
    138 'IEE2ST' 1          1            0            0            0
          10.000       0.0000       0.0000       0.0000       3.0000    
          3.0000      0.15000      0.50000E-01  0.15000      0.50000E-01
         0.15000      0.50000E-01  0.50000E-01 -0.50000E-01   0.0000    
          0.0000    /
    138 'EXST1'  1    0.20000E-01   99.000      -99.000       0.0000    
         0.20000E-01   50.00      0.20000E-01   9999.0      -9999.0    
          0.0000      0.10000E-01   1.2000    /
    138 'IEEEG1' 1          0           0        20.000      0.10000    
          0.0000      0.20000       1.0000      -1.0000      0.95000    
          0.0000      0.10000       0.0000       0.0000       0.0000    
          0.0000       0.0000       0.0000      0.30000       0.0000    
          8.7200      0.70000       0.0000    /


    140 'GENROU' 1     5.3000      0.35000E-01  0.50000      0.77000E-01
          0.94      1.0        1.6200       1.5700      0.24500    
         0.37600      1.000E-1     0.95000E-01   2.1060       10.530    /
    140 'IEE2ST' 1          3            0            0            0
          0.0000       0.0000       0.0000       0.0000       29.500    
          29.500       1.5000      0.15000       1.5000      0.15000    
          0.0000       0.0000      0.90000E-01 -0.90000E-01   0.0000    
          0.0000    /
    140 'IEEEX1' 1    0.20000E-01   20.000      0.50000E-01  0.20000E-01
          0.0000       3.0000      -3.0000       0.0000      0.60000    
         0.70000E-01   1.3000       0.0000       3.7600      0.32000    
          2.8200       1.0000    /
    140 'IEEEG1' 1          0           0        7.000      0.10000    
          0.0000      0.20000       1.0000      -1.0000      0.95000    
          0.0000      0.10000       0.0000       0.0000       0.0000    
          0.0000       0.0000       0.0000      0.30000       0.0000    
          8.7200      0.70000       0.0000    /



    148 'GENROU' 1     8.4000      0.35000E-01  0.46000      0.70000E-01
          1.16      1.0     1.7600       1.5800      0.28500    
         0.48500      2.05000E-1     0.15500       1.8429       6.4500    /
    148 'IEE2ST' 1          2            0            0            0
          5.0000       0.0000      0.29000E-01   0.0000       2.4000    
          2.4000      0.14400      0.40000E-01  0.37700      0.10500    
          0.0000       0.0000      0.50000E-01 -0.50000E-01   0.0000    
          0.0000    /
    148 'EXST1'  1    0.20000E-01   99.000      -99.000       0.0000    
         0.20000E-01   40.00      0.20000E-01   9999.0      -9999.0    
          0.0000      0.10000E-01   1.0000    /
    148 'IEEEG1' 1          0           0        7.000      0.10000    
          0.0000      0.20000       1.0000      -1.0000      0.95000    
          0.0000      0.10000       0.0000       0.0000       0.0000    
          0.0000       0.0000       0.0000      0.30000       0.0000    
          8.7200      0.70000       0.0000    /

    149 'GENROU' 1     8.0000      0.50000E-01   1.5000      0.60000E-01
          0.92       1.0      1.9500       1.8700      0.34000    
          1.0000      2.90000E-1     0.24000       1.3900       4.1700    /
    149 'IEE2ST' 1          2            0            0            0
         0.50000       0.0000      0.42000E-01   0.0000       10.000    
          10.000       1.0000      0.80000E-01   1.7000      0.80000E-01
          0.0000       0.0000      0.50000E-01 -0.50000E-01   0.0000    
          0.0000    /
    149 'EXST1'  1    0.20000E-01   99.000      -99.000       0.0000    
         0.20000E-01   50.00      0.19000       9999.0      -9999.0    
          0.0000      0.15000E-01   1.0000    /
    149 'IEEEG1' 1          0           0        7.000      0.10000    
          0.0000      0.20000       1.0000      -1.0000      0.95000    
          0.0000      0.10000       0.0000       0.0000       0.0000    
          0.0000       0.0000       0.0000      0.30000       0.0000    
          8.7200      0.70000       0.0000    /









    
    159 'GENROU' 1     3.9000      0.32000E-01  0.49000      0.62000E-01
          0.940      1.0    1.6400       1.5700      0.24000    
         0.43000      1.85000E-1     0.13000       1.9225       7.6900    /
    159 'IEE2ST' 1          1            0            0            0
          8.0800       0.0000      0.30000E-01   0.0000       10.000    
          10.000      0.15000      0.50000E-01  0.15000      0.50000E-01
          0.0000       0.0000      0.50000E-01 -0.50000E-01   0.0000    
          0.0000    /
    159 'EXST1'  1    0.20000E-01   99.000      -99.000       1.0000    
          10.000       40.00      0.20000E-01   9999.0      -9999.0    
          0.0000      0.10000E-01   1.0000    /
    159 'IEEEG1' 1          0           0        7.000      0.10000    
          0.0000      0.20000       1.0000      -1.0000      0.95000    
          0.0000      0.10000       0.0000       0.0000       0.0000    
          0.0000       0.0000       0.0000      0.30000       0.0000    
          8.7200      0.70000       0.0000    /
    
	  181 'GENROU' 1     3.9000      0.32000E-01  0.54000      0.62000E-01
          2.6400       5.0000       1.8600       1.7800      0.25000    
         0.45300      1.0000E-1     0.14500       1.9714       6.9000    /
     181 'IEEEST' 1          3            0
	      0.0000           0.00000    0.0000      0.00000       0.0000
		  0.0000           0.00000    0.0000      0.00000       0.7500
		  1.0000           4.20000    -2      0.10000       -0.1000
		  0.0000           0.00000/
      181 'ESST4B' 1     0   3.61     3.61        1.0    
          -0.8       0.01       1.0       0.0000       1.0    
         -0.8       0       5.54      0       6.92    
         0.08  0   0    /
      181 'IEEEG1' 1          0           0        10.000      0.10000    
          0.0000      0.20000       1.0000      -1.0000      0.95000    
          0.0000      0.10000       0.0000       0.0000       0.0000    
          0.0000       0.0000       0.0000      0.30000       0.0000    
          8.7200      0.70000       0.0000    /
182 'GENROU' 1     3.9000      0.32000E-01  0.54000      0.62000E-01
          2.6400       5.0000       1.8600       1.7800      0.25000    
         0.45300      1.0000E-1     0.14500       1.9714       6.9000    /
     182 'IEEEST' 1          3            0
	     0.0000           0.00000    0.0000      0.00000       0.0000
		  0.0000           0.00000    0.0000      0.00000       0.7500
		  1.0000           4.20000    -2      0.10000       -0.1000
		  0.0000           0.00000/
      182 'ESST4B' 1     0   3.61     3.61        1.0    
          -0.8       0.01       1.0       0.0000       1.0    
         -0.8       0       5.54      0       6.92    
         0.08  0   0    /
      182 'IEEEG1' 1          0           0        10.000      0.10000    
          0.0000      0.20000       1.0000      -1.0000      0.95000    
          0.0000      0.10000       0.0000       0.0000       0.0000    
          0.0000       0.0000       0.0000      0.30000       0.0000    
          8.7200      0.70000       0.0000    /


    4 'DFIG' 1     0.8  4.94  0  0.8/
    4 'WTE' 1    5.04 /
	4 'WTT' 1   0.3942   0  / 

    18 'DFIG' 1     0.8  4.94  0  0.8/
    18 'WTE' 1    5.04 /
	18 'WTT' 1   0.3942   0  / 

    40 'DFIG' 1     0.8  4.94  0  0.8/
    40 'WTE' 1    5.04 /
	40 'WTT' 1   0.3942 0  / 


    43 'DFIG' 1     0.8  4.94  0  0.8/
    43 'WTE' 1    5.04 /
	43 'WTT' 1   0.3942   0  / 


    47 'DFIG' 1     0.8  4.94  0  0.8/
    47 'WTE' 1    5.04 /
	47 'WTT' 1   0.438   0  / 
    
    //47 'WT3G1Si' 1  0.8   4.5  0  0.8  /
    //47 'WT3E1Si' 1  0.436  -0.436  0.1  1.1  0.9  1.0  -1.0  40.0  1.45  0.5 /
    //47 'WT3T1Si' 1  1.2  12 /
    //47 'WT3P1Si' 1  4.94 /


    103 'DFIG' 1     0.8  4.94  0  0.8/
    103 'WTE' 1    5.04 /
	103 'WTT' 1   0.438   0  / 
    
    103 'DFIG' 2     0.8  4.94  0  0.8/
    103 'WTE' 2    5.04 /
	103 'WTT' 2   0.438   0  / 
   
    116 'DFIG' 1     0.8  4.94  0  0.8/
    116 'WTE' 1    5.04 /
	116 'WTT' 1   0.438   0  / 

    162 'DFIG' 1     0.8  4.94  0  0.8/
    162 'WTE' 1    5.04 /
	162 'WTT' 1   0.438   0  / 

    79 'DFIG' 2     0.8  4.94  0  0.8/
    79 'WTE' 2    5.04 /
	79 'WTT' 2   0.4161   0  / 

    30 'DFIG' 2     0.8  4.94  0  0.8/
    30 'WTE' 2    5.04 /
	30 'WTT' 2   0.438   0  / 
    35 'DFIG' 2     0.8  4.94  0  0.8/
    35 'WTE' 2    5.04 /
	35 'WTT' 2   0.438   0  / 
    140 'DFIG' 2     0.8  4.94  0  0.8/
    140 'WTE' 2    5.04 /
	140 'WTT' 2   0.438   0  / 
    118 'DFIG' 2     0.8  4.94  0  0.8/
    118 'WTE' 2    5.04 /
	118 'WTT' 2   0.438   0  / 
    65 'DFIG' 2     0.8  4.94  0  0.8/
    65 'WTE' 2    5.04 /
	65 'WTT' 2   0.438   0  / 
    77 'DFIG' 2     0.8  4.94  0  0.8/
    77 'WTE' 2    5.04 /
	77 'WTT' 2   0.438   0  / 
    144 'DFIG' 1     0.8  4.94  0  0.8/
    144 'WTE' 1    5.04 /
	144 'WTT' 1   0.438   0  / 
    6 'DFIG' 2     0.8  4.94  0  0.8/
    6 'WTE' 2    5.04 /
	6 'WTT' 2   0.438   0  /
    159 'DFIG' 2     0.8  4.94  0  0.8/
    159 'WTE' 2    5.04 /
	159 'WTT' 2   0.438   0  /
    149 'DFIG' 2     0.8  4.94  0  0.8/
    149 'WTE' 2    5.04 /
	149 'WTT' 2   0.438   0  /
    148 'DFIG' 2     0.8  4.94  0  0.8/
    148 'WTE' 2    5.04 /
	148 'WTT' 2   0.4161   0  /

    45 'DFIG' 2     0.8  4.94  0  0.8/
    45 'WTE' 2    5.04 /
	45 'WTT' 2   0.4161   0  /

    112 'DFIG' 2     0.8  4.94  0  0.8/
    112 'WTE' 2    5.04 /
	112 'WTT' 2   0.438   0  /